<routes xmlns:xsi="http://www.w3.org/2001/XMLSchema-instance" xsi:noNamespaceSchemaLocation="http://sumo.dlr.de/xsd/routes_file.xsd">
    <vehicle depart="0.00" id="0">
        <route edges="2Ni 1Ei 0Ei 0Wo" />
    </vehicle>
    <vehicle depart="1.25" id="1">
        <route edges="8Ei 5Si 2Si 1Ei 0Ei 0No" />
    </vehicle>
    <vehicle depart="2.50" id="2">
        <route edges="8Ei 5Si 2Si 1Ei 1No" />
    </vehicle>
    <vehicle depart="3.75" id="3">
        <route edges="6Si 3Si 0Si" />
    </vehicle>
    <vehicle depart="5.00" id="4">
        <route edges="8Ei 5Si 2Si 1Ei 0Ei 0Wo" />
    </vehicle>
    <vehicle depart="6.25" id="5">
        <route edges="0Ni 1Wi 2Wi 5Ni 8Ni 8Eo" />
    </vehicle>
    <vehicle depart="7.50" id="6">
        <route edges="8Ei 7Ei 6Ei 6Wo" />
    </vehicle>
    <vehicle depart="8.75" id="7">
        <route edges="2Ni 5Ni 8Ni 7Ei" />
    </vehicle>
    <vehicle depart="10.00" id="8">
        <route edges="2Ei 5Ni 8Ni 7Ei 6Ei 3Si" />
    </vehicle>
    <vehicle depart="11.25" id="9">
        <route edges="6Wi 7Wi 8Wi 5Si" />
    </vehicle>
    <vehicle depart="12.50" id="10">
        <route edges="6Si 7Wi 8Wi 8Eo" />
    </vehicle>
    <vehicle depart="13.75" id="11">
        <route edges="7Si 4Si 1Si" />
    </vehicle>
    <vehicle depart="15.00" id="12">
        <route edges="6Si 7Wi 4Si 1Si" />
    </vehicle>
    <vehicle depart="16.25" id="13">
        <route edges="5Ei 4Ei 3Ei" />
    </vehicle>
    <vehicle depart="17.50" id="14">
        <route edges="6Si 7Wi 4Si 1Si 0Ei" />
    </vehicle>
    <vehicle depart="18.75" id="15">
        <route edges="5Ei 8Ni 7Ei 6Ei 6So" />
    </vehicle>
    <vehicle depart="20.00" id="16">
        <route edges="6Si 7Wi 8Wi 5Si 2Si 2Eo" />
    </vehicle>
    <vehicle depart="21.25" id="17">
        <route edges="7Si 4Si 1Si 0Ei 0No" />
    </vehicle>
    <vehicle depart="22.50" id="18">
        <route edges="2Ei 5Ni 4Ei 3Ei" />
    </vehicle>
    <vehicle depart="23.75" id="19">
        <route edges="2Ei 5Ni 4Ei 3Ei 3Wo" />
    </vehicle>
    <vehicle depart="25.00" id="20">
        <route edges="0Ni 1Wi 4Ni 7Ni 6Ei" />
    </vehicle>
    <vehicle depart="26.25" id="21">
        <route edges="2Ni 5Ni 4Ei 7Ni 8Wi" />
    </vehicle>
    <vehicle depart="27.50" id="22">
        <route edges="8Ei 5Si 4Ei 3Ei 0Si" />
    </vehicle>
    <vehicle depart="28.75" id="23">
        <route edges="0Wi 1Wi 4Ni 5Wi" />
    </vehicle>
    <vehicle depart="30.00" id="24">
        <route edges="8Ei 7Ei 6Ei 6Wo" />
    </vehicle>
    <vehicle depart="31.25" id="25">
        <route edges="2Ni 5Ni 4Ei 3Ei 6Ni 7Wi" />
    </vehicle>
    <vehicle depart="32.50" id="26">
        <route edges="6Wi 7Wi 8Wi" />
    </vehicle>
    <vehicle depart="33.75" id="27">
        <route edges="6Wi 7Wi 8Wi 5Si 2Si" />
    </vehicle>
    <vehicle depart="35.00" id="28">
        <route edges="7Si 4Si 1Si 0Ei 0No" />
    </vehicle>
    <vehicle depart="36.25" id="29">
        <route edges="2Ni 5Ni 8Ni 8Eo" />
    </vehicle>
    <vehicle depart="37.50" id="30">
        <route edges="2Ei 5Ni 8Ni 7Ei 6Ei 3Si" />
    </vehicle>
    <vehicle depart="38.75" id="31">
        <route edges="8Si 5Si 4Ei 3Ei 0Si" />
    </vehicle>
    <vehicle depart="40.00" id="32">
        <route edges="1Ni 2Wi 5Ni 5Eo" />
    </vehicle>
    <vehicle depart="41.25" id="33">
        <route edges="0Wi 1Wi 2Wi" />
    </vehicle>
    <vehicle depart="42.50" id="34">
        <route edges="7Si 8Wi 5Si 2Si 2No" />
    </vehicle>
    <vehicle depart="43.75" id="35">
        <route edges="7Si 8Wi 5Si 5Eo" />
    </vehicle>
    <vehicle depart="45.00" id="36">
        <route edges="0Wi 1Wi 4Ni 7Ni 8Wi 5Si" />
    </vehicle>
    <vehicle depart="46.25" id="37">
        <route edges="0Ni 3Ni 6Ni 7Wi" />
    </vehicle>
    <vehicle depart="47.50" id="38">
        <route edges="2Ni 5Ni 8Ni 7Ei 6Ei" />
    </vehicle>
    <vehicle depart="48.75" id="39">
        <route edges="1Ni 4Ni 7Ni 8Wi" />
    </vehicle>
    <vehicle depart="50.00" id="40">
        <route edges="1Ni 2Wi 5Ni 5Eo" />
    </vehicle>
    <vehicle depart="51.25" id="41">
        <route edges="2Ni 5Ni 8Ni" />
    </vehicle>
    <vehicle depart="52.50" id="42">
        <route edges="0Wi 1Wi 2Wi 2No" />
    </vehicle>
    <vehicle depart="53.75" id="43">
        <route edges="7Si 4Si 1Si 2Wi" />
    </vehicle>
    <vehicle depart="55.00" id="44">
        <route edges="8Si 5Si 2Si 1Ei 0Ei 0No" />
    </vehicle>
    <vehicle depart="56.25" id="45">
        <route edges="2Ni 1Ei 0Ei 0Wo" />
    </vehicle>
    <vehicle depart="57.50" id="46">
        <route edges="2Ei 5Ni 4Ei 3Ei 3Wo" />
    </vehicle>
    <vehicle depart="58.75" id="47">
        <route edges="8Ei 5Si 2Si 2No" />
    </vehicle>
    <vehicle depart="60.00" id="48">
        <route edges="8Si 5Si 4Ei 1Si" />
    </vehicle>
    <vehicle depart="61.25" id="49">
        <route edges="0Ni 1Wi 4Ni 7Ni 8Wi" />
    </vehicle>
    <vehicle depart="62.50" id="50">
        <route edges="7Si 8Wi 5Si 2Si" />
    </vehicle>
    <vehicle depart="63.75" id="51">
        <route edges="2Ei 1Ei 0Ei 3Ni" />
    </vehicle>
    <vehicle depart="65.00" id="52">
        <route edges="2Ni 5Ni 4Ei 3Ei 3Wo" />
    </vehicle>
    <vehicle depart="66.25" id="53">
        <route edges="5Ei 8Ni 7Ei 6Ei 6Wo" />
    </vehicle>
    <vehicle depart="67.50" id="54">
        <route edges="3Wi 4Wi 5Wi 2Si" />
    </vehicle>
    <vehicle depart="68.75" id="55">
        <route edges="1Ni 2Wi 5Ni 8Ni" />
    </vehicle>
    <vehicle depart="70.00" id="56">
        <route edges="0Ni 1Wi 2Wi 5Ni 8Ni" />
    </vehicle>
    <vehicle depart="71.25" id="57">
        <route edges="2Ni 5Ni 8Ni 7Ei" />
    </vehicle>
    <vehicle depart="72.50" id="58">
        <route edges="0Wi 1Wi 2Wi 5Ni 5Eo" />
    </vehicle>
    <vehicle depart="73.75" id="59">
        <route edges="7Si 4Si 3Ei 3Wo" />
    </vehicle>
    <vehicle depart="75.00" id="60">
        <route edges="8Ei 5Si 4Ei 3Ei 0Si" />
    </vehicle>
    <vehicle depart="76.25" id="61">
        <route edges="8Si 5Si 2Si 1Ei 0Ei" />
    </vehicle>
    <vehicle depart="77.50" id="62">
        <route edges="0Ni 1Wi 2Wi 5Ni 8Ni" />
    </vehicle>
    <vehicle depart="78.75" id="63">
        <route edges="3Wi 4Wi 5Wi 2Si" />
    </vehicle>
    <vehicle depart="80.00" id="64">
        <route edges="5Ei 8Ni 7Ei 6Ei 3Si" />
    </vehicle>
    <vehicle depart="81.25" id="65">
        <route edges="6Wi 7Wi 8Wi 8Eo" />
    </vehicle>
    <vehicle depart="82.50" id="66">
        <route edges="8Si 5Si 2Si 1Ei 0Ei 0Wo" />
    </vehicle>
    <vehicle depart="83.75" id="67">
        <route edges="6Si 7Wi 4Si 1Si 2Wi" />
    </vehicle>
    <vehicle depart="85.00" id="68">
        <route edges="0Ni 1Wi 4Ni 7Ni 6Ei" />
    </vehicle>
    <vehicle depart="86.25" id="69">
        <route edges="8Si 5Si 4Ei 1Si" />
    </vehicle>
    <vehicle depart="87.50" id="70">
        <route edges="8Ei 5Si 2Si 1Ei 0Ei" />
    </vehicle>
    <vehicle depart="88.75" id="71">
        <route edges="7Si 4Si 1Si 0Ei 0Wo" />
    </vehicle>
    <vehicle depart="90.00" id="72">
        <route edges="3Wi 4Wi 5Wi 8Ni" />
    </vehicle>
    <vehicle depart="91.25" id="73">
        <route edges="6Si 3Si 0Si" />
    </vehicle>
    <vehicle depart="92.50" id="74">
        <route edges="2Ni 5Ni 8Ni 8So" />
    </vehicle>
    <vehicle depart="93.75" id="75">
        <route edges="1Ni 4Ni 3Ei 3Wo" />
    </vehicle>
    <vehicle depart="95.00" id="76">
        <route edges="2Ni 5Ni 8Ni 7Ei" />
    </vehicle>
    <vehicle depart="96.25" id="77">
        <route edges="7Si 4Si 3Ei 0Si" />
    </vehicle>
    <vehicle depart="97.50" id="78">
        <route edges="0Ni 1Wi 2Wi 5Ni 8Ni" />
    </vehicle>
    <vehicle depart="98.75" id="79">
        <route edges="2Ei 5Ni 4Ei 3Ei 3Wo" />
    </vehicle>
    <vehicle depart="100.00" id="80">
        <route edges="2Ni 5Ni 8Ni 7Ei 6Ei" />
    </vehicle>
    <vehicle depart="101.25" id="81">
        <route edges="0Ni 3Ni 6Ni" />
    </vehicle>
    <vehicle depart="102.50" id="82">
        <route edges="0Wi 1Wi 2Wi 5Ni" />
    </vehicle>
    <vehicle depart="103.75" id="83">
        <route edges="6Si 3Si 0Si" />
    </vehicle>
    <vehicle depart="105.00" id="84">
        <route edges="7Si 8Wi 5Si 2Si" />
    </vehicle>
    <vehicle depart="106.25" id="85">
        <route edges="8Ei 7Ei 6Ei" />
    </vehicle>
    <vehicle depart="107.50" id="86">
        <route edges="0Wi 1Wi 4Ni 7Ni 8Wi" />
    </vehicle>
    <vehicle depart="108.75" id="87">
        <route edges="6Si 7Wi 8Wi 5Si 2Si 2No" />
    </vehicle>
    <vehicle depart="110.00" id="88">
        <route edges="8Ei 5Si 4Ei 3Ei 0Si" />
    </vehicle>
    <vehicle depart="111.25" id="89">
        <route edges="2Ni 5Ni 8Ni 7Ei 6Ei" />
    </vehicle>
    <vehicle depart="112.50" id="90">
        <route edges="7Si 8Wi 5Si 2Si 1Ei" />
    </vehicle>
    <vehicle depart="113.75" id="91">
        <route edges="0Wi 1Wi 4Ni 7Ni 7So" />
    </vehicle>
    <vehicle depart="115.00" id="92">
        <route edges="1Ni 4Ni 3Ei 6Ni 7Wi" />
    </vehicle>
    <vehicle depart="116.25" id="93">
        <route edges="7Si 4Si 3Ei 0Si" />
    </vehicle>
    <vehicle depart="117.50" id="94">
        <route edges="0Ni 1Wi 2Wi 5Ni 8Ni 7Ei" />
    </vehicle>
    <vehicle depart="118.75" id="95">
        <route edges="0Wi 1Wi 4Ni 5Wi 2Si" />
    </vehicle>
    <vehicle depart="120.00" id="96">
        <route edges="8Si 5Si 4Ei 3Ei 3Wo" />
    </vehicle>
    <vehicle depart="121.25" id="97">
        <route edges="0Wi 1Wi 4Ni 5Wi" />
    </vehicle>
    <vehicle depart="122.50" id="98">
        <route edges="0Ni 1Wi 2Wi 5Ni 5Eo" />
    </vehicle>
    <vehicle depart="123.75" id="99">
        <route edges="1Ni 2Wi 5Ni 5Eo" />
    </vehicle>
    <vehicle depart="125.00" id="100">
        <route edges="7Si 4Si 3Ei 3Wo" />
    </vehicle>
    <vehicle depart="126.25" id="101">
        <route edges="5Ei 2Si 1Ei 0Ei 3Ni" />
    </vehicle>
    <vehicle depart="127.50" id="102">
        <route edges="0Ni 1Wi 4Ni 7Ni 6Ei" />
    </vehicle>
    <vehicle depart="128.75" id="103">
        <route edges="0Wi 1Wi 4Ni 5Wi" />
    </vehicle>
    <vehicle depart="130.00" id="104">
        <route edges="6Si 3Si 0Si 0Wo" />
    </vehicle>
    <vehicle depart="131.25" id="105">
        <route edges="7Si 8Wi 5Si 2Si 1Ei" />
    </vehicle>
    <vehicle depart="132.50" id="106">
        <route edges="6Wi 7Wi 4Si 1Si 2Wi 5Ni" />
    </vehicle>
    <vehicle depart="133.75" id="107">
        <route edges="2Ni 5Ni 4Ei 3Ei 3Wo" />
    </vehicle>
    <vehicle depart="135.00" id="108">
        <route edges="2Ei 5Ni 8Ni 7Ei 6Ei 3Si" />
    </vehicle>
    <vehicle depart="136.25" id="109">
        <route edges="3Wi 4Wi 5Wi" />
    </vehicle>
    <vehicle depart="137.50" id="110">
        <route edges="6Si 7Wi 8Wi 5Si 2Si" />
    </vehicle>
    <vehicle depart="138.75" id="111">
        <route edges="0Wi 1Wi 4Ni 5Wi" />
    </vehicle>
    <vehicle depart="140.00" id="112">
        <route edges="0Ni 1Wi 2Wi 5Ni 5Eo" />
    </vehicle>
    <vehicle depart="141.25" id="113">
        <route edges="5Ei 4Ei 3Ei" />
    </vehicle>
    <vehicle depart="142.50" id="114">
        <route edges="2Ni 5Ni 8Ni 8Eo" />
    </vehicle>
    <vehicle depart="143.75" id="115">
        <route edges="1Ni 4Ni 7Ni 6Ei 6So" />
    </vehicle>
    <vehicle depart="145.00" id="116">
        <route edges="8Ei 7Ei 6Ei" />
    </vehicle>
    <vehicle depart="146.25" id="117">
        <route edges="6Wi 7Wi 4Si 1Si 1No" />
    </vehicle>
    <vehicle depart="147.50" id="118">
        <route edges="8Si 5Si 2Si 1Ei 1No" />
    </vehicle>
    <vehicle depart="148.75" id="119">
        <route edges="7Si 4Si 1Si" />
    </vehicle>
    <vehicle depart="150.00" id="120">
        <route edges="1Ni 2Wi 5Ni 5Eo" />
    </vehicle>
    <vehicle depart="151.25" id="121">
        <route edges="1Ni 2Wi 5Ni 8Ni 8So" />
    </vehicle>
    <vehicle depart="152.50" id="122">
        <route edges="1Ni 4Ni 7Ni 8Wi" />
    </vehicle>
    <vehicle depart="153.75" id="123">
        <route edges="5Ei 2Si 1Ei 0Ei" />
    </vehicle>
    <vehicle depart="155.00" id="124">
        <route edges="6Wi 7Wi 8Wi 5Si" />
    </vehicle>
    <vehicle depart="156.25" id="125">
        <route edges="1Ni 4Ni 3Ei 3Wo" />
    </vehicle>
    <vehicle depart="157.50" id="126">
        <route edges="8Ei 5Si 4Ei 3Ei 6Ni" />
    </vehicle>
    <vehicle depart="158.75" id="127">
        <route edges="8Si 5Si 4Ei 3Ei 3Wo" />
    </vehicle>
    <vehicle depart="160.00" id="128">
        <route edges="5Ei 8Ni 7Ei 6Ei" />
    </vehicle>
    <vehicle depart="161.25" id="129">
        <route edges="5Ei 8Ni 7Ei 6Ei 6So" />
    </vehicle>
    <vehicle depart="162.50" id="130">
        <route edges="6Si 3Si 0Si 0No" />
    </vehicle>
    <vehicle depart="163.75" id="131">
        <route edges="3Wi 4Wi 7Ni 7So" />
    </vehicle>
    <vehicle depart="165.00" id="132">
        <route edges="0Wi 1Wi 2Wi 5Ni 8Ni 8So" />
    </vehicle>
    <vehicle depart="166.25" id="133">
        <route edges="0Ni 1Wi 2Wi 5Ni 5Eo" />
    </vehicle>
    <vehicle depart="167.50" id="134">
        <route edges="8Si 5Si 2Si 1Ei 0Ei" />
    </vehicle>
    <vehicle depart="168.75" id="135">
        <route edges="2Ei 5Ni 8Ni 7Ei 6Ei 3Si" />
    </vehicle>
    <vehicle depart="170.00" id="136">
        <route edges="2Ni 5Ni 8Ni" />
    </vehicle>
    <vehicle depart="171.25" id="137">
        <route edges="0Wi 1Wi 2Wi 2No" />
    </vehicle>
    <vehicle depart="172.50" id="138">
        <route edges="1Ni 4Ni 3Ei 6Ni 7Wi" />
    </vehicle>
    <vehicle depart="173.75" id="139">
        <route edges="3Wi 4Wi 5Wi" />
    </vehicle>
    <vehicle depart="175.00" id="140">
        <route edges="2Ni 5Ni 4Ei 7Ni" />
    </vehicle>
    <vehicle depart="176.25" id="141">
        <route edges="5Ei 2Si 1Ei 0Ei 0No" />
    </vehicle>
    <vehicle depart="177.50" id="142">
        <route edges="6Wi 7Wi 4Si 1Si 1No" />
    </vehicle>
    <vehicle depart="178.75" id="143">
        <route edges="2Ei 5Ni 8Ni 7Ei 6Ei 6Wo" />
    </vehicle>
    <vehicle depart="180.00" id="144">
        <route edges="3Wi 4Wi 5Wi 8Ni 8Eo" />
    </vehicle>
    <vehicle depart="181.25" id="145">
        <route edges="3Wi 4Wi 5Wi 8Ni 8Eo" />
    </vehicle>
    <vehicle depart="182.50" id="146">
        <route edges="0Ni 3Ni 6Ni" />
    </vehicle>
    <vehicle depart="183.75" id="147">
        <route edges="7Si 4Si 3Ei 3Wo" />
    </vehicle>
    <vehicle depart="185.00" id="148">
        <route edges="7Si 4Si 1Si" />
    </vehicle>
    <vehicle depart="186.25" id="149">
        <route edges="6Si 7Wi 8Wi 5Si 2Si 1Ei" />
    </vehicle>
    <vehicle depart="187.50" id="150">
        <route edges="1Ni 4Ni 3Ei 6Ni" />
    </vehicle>
    <vehicle depart="188.75" id="151">
        <route edges="0Wi 1Wi 2Wi 5Ni 8Ni 8So" />
    </vehicle>
    <vehicle depart="190.00" id="152">
        <route edges="0Wi 1Wi 2Wi 2No" />
    </vehicle>
    <vehicle depart="191.25" id="153">
        <route edges="1Ni 4Ni 7Ni" />
    </vehicle>
    <vehicle depart="192.50" id="154">
        <route edges="0Ni 3Ni 6Ni 7Wi" />
    </vehicle>
    <vehicle depart="193.75" id="155">
        <route edges="8Si 7Ei 6Ei 6Wo" />
    </vehicle>
    <vehicle depart="195.00" id="156">
        <route edges="6Si 7Wi 4Si 1Si 0Ei" />
    </vehicle>
    <vehicle depart="196.25" id="157">
        <route edges="0Wi 1Wi 2Wi" />
    </vehicle>
    <vehicle depart="197.50" id="158">
        <route edges="6Si 7Wi 4Si 1Si 1No" />
    </vehicle>
    <vehicle depart="198.75" id="159">
        <route edges="0Ni 1Wi 2Wi 2Eo" />
    </vehicle>
    <vehicle depart="200.00" id="160">
        <route edges="2Ni 1Ei 0Ei 0Wo" />
    </vehicle>
    <vehicle depart="201.25" id="161">
        <route edges="8Ei 5Si 4Ei 3Ei 3Wo" />
    </vehicle>
    <vehicle depart="202.50" id="162">
        <route edges="0Wi 1Wi 2Wi 5Ni 5Eo" />
    </vehicle>
    <vehicle depart="203.75" id="163">
        <route edges="1Ni 4Ni 7Ni 6Ei 6Wo" />
    </vehicle>
    <vehicle depart="205.00" id="164">
        <route edges="5Ei 8Ni 7Ei 6Ei 6So" />
    </vehicle>
    <vehicle depart="206.25" id="165">
        <route edges="2Ei 5Ni 4Ei 3Ei 3Wo" />
    </vehicle>
    <vehicle depart="207.50" id="166">
        <route edges="6Si 7Wi 8Wi 8Eo" />
    </vehicle>
    <vehicle depart="208.75" id="167">
        <route edges="0Wi 1Wi 2Wi 2Eo" />
    </vehicle>
    <vehicle depart="210.00" id="168">
        <route edges="1Ni 2Wi 5Ni 8Ni 8Eo" />
    </vehicle>
    <vehicle depart="211.25" id="169">
        <route edges="0Wi 1Wi 4Ni 5Wi 2Si" />
    </vehicle>
    <vehicle depart="212.50" id="170">
        <route edges="6Wi 7Wi 8Wi 5Si" />
    </vehicle>
    <vehicle depart="213.75" id="171">
        <route edges="6Wi 7Wi 8Wi 5Si 2Si 2Eo" />
    </vehicle>
    <vehicle depart="215.00" id="172">
        <route edges="6Si 7Wi 8Wi 5Si 2Si 2Eo" />
    </vehicle>
    <vehicle depart="216.25" id="173">
        <route edges="8Si 5Si 4Ei 3Ei 0Si" />
    </vehicle>
    <vehicle depart="217.50" id="174">
        <route edges="2Ei 5Ni 8Ni 8So" />
    </vehicle>
    <vehicle depart="218.75" id="175">
        <route edges="0Ni 3Ni 6Ni" />
    </vehicle>
    <vehicle depart="220.00" id="176">
        <route edges="8Si 5Si 4Ei 3Ei 0Si" />
    </vehicle>
    <vehicle depart="221.25" id="177">
        <route edges="3Wi 4Wi 1Si 2Wi" />
    </vehicle>
    <vehicle depart="222.50" id="178">
        <route edges="3Wi 4Wi 5Wi 2Si" />
    </vehicle>
    <vehicle depart="223.75" id="179">
        <route edges="2Ni 5Ni 8Ni 7Ei 7So" />
    </vehicle>
    <vehicle depart="225.00" id="180">
        <route edges="8Si 5Si 2Si 2No" />
    </vehicle>
    <vehicle depart="226.25" id="181">
        <route edges="5Ei 2Si 1Ei 0Ei 0Wo" />
    </vehicle>
    <vehicle depart="227.50" id="182">
        <route edges="0Ni 3Ni 6Ni" />
    </vehicle>
    <vehicle depart="228.75" id="183">
        <route edges="1Ni 4Ni 7Ni 6Ei" />
    </vehicle>
    <vehicle depart="230.00" id="184">
        <route edges="5Ei 8Ni 7Ei 6Ei 6So" />
    </vehicle>
    <vehicle depart="231.25" id="185">
        <route edges="2Ni 5Ni 4Ei 3Ei 6Ni" />
    </vehicle>
    <vehicle depart="232.50" id="186">
        <route edges="0Wi 1Wi 2Wi 5Ni" />
    </vehicle>
    <vehicle depart="233.75" id="187">
        <route edges="2Ei 5Ni 4Ei 3Ei 6Ni" />
    </vehicle>
    <vehicle depart="235.00" id="188">
        <route edges="8Si 5Si 2Si 1Ei 0Ei 0No" />
    </vehicle>
    <vehicle depart="236.25" id="189">
        <route edges="6Wi 7Wi 4Si 5Wi" />
    </vehicle>
    <vehicle depart="237.50" id="190">
        <route edges="2Ni 5Ni 4Ei 3Ei 3Wo" />
    </vehicle>
    <vehicle depart="238.75" id="191">
        <route edges="1Ni 4Ni 7Ni 6Ei 6Wo" />
    </vehicle>
    <vehicle depart="240.00" id="192">
        <route edges="8Si 5Si 2Si" />
    </vehicle>
    <vehicle depart="241.25" id="193">
        <route edges="8Si 5Si 2Si 2No" />
    </vehicle>
    <vehicle depart="242.50" id="194">
        <route edges="3Wi 4Wi 5Wi 8Ni 8Eo" />
    </vehicle>
    <vehicle depart="243.75" id="195">
        <route edges="0Ni 1Wi 2Wi 5Ni 8Ni 8So" />
    </vehicle>
    <vehicle depart="245.00" id="196">
        <route edges="3Wi 4Wi 7Ni 8Wi 5Si" />
    </vehicle>
    <vehicle depart="246.25" id="197">
        <route edges="2Ei 5Ni 8Ni 7Ei 6Ei 3Si" />
    </vehicle>
    <vehicle depart="247.50" id="198">
        <route edges="6Si 3Si 0Si 1Wi" />
    </vehicle>
    <vehicle depart="248.75" id="199">
        <route edges="0Ni 1Wi 4Ni 7Ni 6Ei" />
    </vehicle>
    <vehicle depart="250.00" id="200">
        <route edges="2Ei 5Ni 8Ni 7Ei 7So" />
    </vehicle>
    <vehicle depart="251.25" id="201">
        <route edges="0Wi 1Wi 2Wi 5Ni 8Ni 8So" />
    </vehicle>
    <vehicle depart="252.50" id="202">
        <route edges="0Ni 3Ni 6Ni 6Wo" />
    </vehicle>
    <vehicle depart="253.75" id="203">
        <route edges="2Ni 5Ni 8Ni 7Ei 6Ei 6Wo" />
    </vehicle>
    <vehicle depart="255.00" id="204">
        <route edges="2Ni 5Ni 8Ni 7Ei 6Ei 6So" />
    </vehicle>
    <vehicle depart="256.25" id="205">
        <route edges="6Wi 7Wi 4Si 5Wi" />
    </vehicle>
    <vehicle depart="257.50" id="206">
        <route edges="2Ei 5Ni 8Ni 7Ei 6Ei 3Si" />
    </vehicle>
    <vehicle depart="258.75" id="207">
        <route edges="3Wi 4Wi 7Ni 8Wi 5Si" />
    </vehicle>
    <vehicle depart="260.00" id="208">
        <route edges="7Si 8Wi 5Si 2Si 2No" />
    </vehicle>
    <vehicle depart="261.25" id="209">
        <route edges="6Si 7Wi 4Si 1Si 1No" />
    </vehicle>
    <vehicle depart="262.50" id="210">
        <route edges="0Wi 1Wi 4Ni 5Wi" />
    </vehicle>
    <vehicle depart="263.75" id="211">
        <route edges="6Wi 7Wi 4Si 5Wi" />
    </vehicle>
    <vehicle depart="265.00" id="212">
        <route edges="5Ei 2Si 1Ei 0Ei 3Ni" />
    </vehicle>
    <vehicle depart="266.25" id="213">
        <route edges="6Wi 7Wi 4Si 5Wi 8Ni" />
    </vehicle>
    <vehicle depart="267.50" id="214">
        <route edges="0Ni 1Wi 2Wi 5Ni 8Ni 8So" />
    </vehicle>
    <vehicle depart="268.75" id="215">
        <route edges="6Wi 7Wi 8Wi 5Si 2Si 2Eo" />
    </vehicle>
    <vehicle depart="270.00" id="216">
        <route edges="8Ei 5Si 4Ei 3Ei" />
    </vehicle>
    <vehicle depart="271.25" id="217">
        <route edges="3Wi 4Wi 1Si 2Wi" />
    </vehicle>
    <vehicle depart="272.50" id="218">
        <route edges="2Ni 5Ni 8Ni 7Ei 6Ei 6So" />
    </vehicle>
    <vehicle depart="273.75" id="219">
        <route edges="5Ei 2Si 1Ei 0Ei 0No" />
    </vehicle>
    <vehicle depart="275.00" id="220">
        <route edges="0Ni 1Wi 2Wi 5Ni 8Ni" />
    </vehicle>
    <vehicle depart="276.25" id="221">
        <route edges="0Wi 1Wi 2Wi 5Ni 8Ni 8So" />
    </vehicle>
    <vehicle depart="277.50" id="222">
        <route edges="6Wi 7Wi 8Wi 5Si 5Eo" />
    </vehicle>
    <vehicle depart="278.75" id="223">
        <route edges="6Wi 7Wi 8Wi 5Si 2Si 2Eo" />
    </vehicle>
    <vehicle depart="280.00" id="224">
        <route edges="0Wi 1Wi 2Wi 2Eo" />
    </vehicle>
    <vehicle depart="281.25" id="225">
        <route edges="0Wi 1Wi 2Wi 2Eo" />
    </vehicle>
    <vehicle depart="282.50" id="226">
        <route edges="2Ni 5Ni 4Ei 3Ei 6Ni 7Wi" />
    </vehicle>
    <vehicle depart="283.75" id="227">
        <route edges="1Ni 2Wi 5Ni 8Ni" />
    </vehicle>
    <vehicle depart="285.00" id="228">
        <route edges="6Wi 7Wi 8Wi 5Si 2Si" />
    </vehicle>
    <vehicle depart="286.25" id="229">
        <route edges="1Ni 4Ni 7Ni 7So" />
    </vehicle>
    <vehicle depart="287.50" id="230">
        <route edges="1Ni 4Ni 3Ei 3Wo" />
    </vehicle>
    <vehicle depart="288.75" id="231">
        <route edges="0Ni 1Wi 2Wi 5Ni 8Ni 7Ei" />
    </vehicle>
    <vehicle depart="290.00" id="232">
        <route edges="8Ei 7Ei 6Ei 3Si" />
    </vehicle>
    <vehicle depart="291.25" id="233">
        <route edges="5Ei 4Ei 3Ei 6Ni" />
    </vehicle>
    <vehicle depart="292.50" id="234">
        <route edges="0Wi 1Wi 2Wi 5Ni 8Ni 8So" />
    </vehicle>
    <vehicle depart="293.75" id="235">
        <route edges="6Si 7Wi 8Wi 5Si 5Eo" />
    </vehicle>
    <vehicle depart="295.00" id="236">
        <route edges="0Ni 1Wi 2Wi 5Ni 8Ni" />
    </vehicle>
    <vehicle depart="296.25" id="237">
        <route edges="0Wi 1Wi 4Ni 7Ni 8Wi" />
    </vehicle>
    <vehicle depart="297.50" id="238">
        <route edges="6Si 7Wi 4Si 1Si 2Wi" />
    </vehicle>
    <vehicle depart="298.75" id="239">
        <route edges="6Wi 7Wi 8Wi 8Eo" />
    </vehicle>
    <vehicle depart="300.00" id="240">
        <route edges="2Ei 1Ei 0Ei 0Wo" />
    </vehicle>
    <vehicle depart="301.25" id="241">
        <route edges="2Ni 5Ni 4Ei 3Ei 6Ni" />
    </vehicle>
    <vehicle depart="302.50" id="242">
        <route edges="8Ei 5Si 4Ei 3Ei 6Ni" />
    </vehicle>
    <vehicle depart="303.75" id="243">
        <route edges="0Wi 1Wi 4Ni 7Ni 8Wi 5Si" />
    </vehicle>
    <vehicle depart="305.00" id="244">
        <route edges="6Wi 7Wi 8Wi 5Si 2Si" />
    </vehicle>
    <vehicle depart="306.25" id="245">
        <route edges="1Ni 4Ni 7Ni 8Wi" />
    </vehicle>
    <vehicle depart="307.50" id="246">
        <route edges="5Ei 2Si 1Ei 0Ei 0No" />
    </vehicle>
    <vehicle depart="308.75" id="247">
        <route edges="5Ei 2Si 1Ei 0Ei 3Ni" />
    </vehicle>
    <vehicle depart="310.00" id="248">
        <route edges="2Ei 5Ni 8Ni 7Ei 7So" />
    </vehicle>
    <vehicle depart="311.25" id="249">
        <route edges="2Ei 5Ni 8Ni 7Ei 6Ei" />
    </vehicle>
    <vehicle depart="312.50" id="250">
        <route edges="1Ni 4Ni 7Ni 6Ei" />
    </vehicle>
    <vehicle depart="313.75" id="251">
        <route edges="5Ei 8Ni 7Ei 6Ei" />
    </vehicle>
    <vehicle depart="315.00" id="252">
        <route edges="1Ni 2Wi 5Ni 8Ni 8So" />
    </vehicle>
    <vehicle depart="316.25" id="253">
        <route edges="0Ni 3Ni 6Ni" />
    </vehicle>
    <vehicle depart="317.50" id="254">
        <route edges="8Si 5Si 4Ei 3Ei 0Si" />
    </vehicle>
    <vehicle depart="318.75" id="255">
        <route edges="8Ei 5Si 2Si 1Ei 0Ei 3Ni" />
    </vehicle>
    <vehicle depart="320.00" id="256">
        <route edges="8Ei 5Si 2Si 1Ei 1No" />
    </vehicle>
    <vehicle depart="321.25" id="257">
        <route edges="7Si 4Si 1Si 1No" />
    </vehicle>
    <vehicle depart="322.50" id="258">
        <route edges="0Wi 1Wi 2Wi 5Ni 8Ni 8So" />
    </vehicle>
    <vehicle depart="323.75" id="259">
        <route edges="1Ni 4Ni 3Ei 3Wo" />
    </vehicle>
    <vehicle depart="325.00" id="260">
        <route edges="6Wi 7Wi 8Wi" />
    </vehicle>
    <vehicle depart="326.25" id="261">
        <route edges="6Wi 7Wi 8Wi 5Si 5Eo" />
    </vehicle>
    <vehicle depart="327.50" id="262">
        <route edges="0Wi 1Wi 2Wi 5Ni" />
    </vehicle>
    <vehicle depart="328.75" id="263">
        <route edges="3Wi 4Wi 5Wi 2Si" />
    </vehicle>
    <vehicle depart="330.00" id="264">
        <route edges="8Ei 5Si 2Si 1Ei 0Ei 3Ni" />
    </vehicle>
    <vehicle depart="331.25" id="265">
        <route edges="3Wi 4Wi 5Wi 8Ni 8So" />
    </vehicle>
    <vehicle depart="332.50" id="266">
        <route edges="2Ni 5Ni 8Ni 7Ei 6Ei 6Wo" />
    </vehicle>
    <vehicle depart="333.75" id="267">
        <route edges="2Ni 5Ni 8Ni 7Ei 6Ei 6Wo" />
    </vehicle>
    <vehicle depart="335.00" id="268">
        <route edges="0Wi 1Wi 2Wi" />
    </vehicle>
    <vehicle depart="336.25" id="269">
        <route edges="0Ni 1Wi 4Ni 7Ni 6Ei" />
    </vehicle>
    <vehicle depart="337.50" id="270">
        <route edges="2Ni 5Ni 4Ei 7Ni" />
    </vehicle>
    <vehicle depart="338.75" id="271">
        <route edges="2Ni 5Ni 8Ni 8So" />
    </vehicle>
    <vehicle depart="340.00" id="272">
        <route edges="2Ni 5Ni 8Ni 8Eo" />
    </vehicle>
    <vehicle depart="341.25" id="273">
        <route edges="0Ni 1Wi 4Ni 7Ni 7So" />
    </vehicle>
    <vehicle depart="342.50" id="274">
        <route edges="8Si 5Si 4Ei 3Ei 0Si 1Wi" />
    </vehicle>
    <vehicle depart="343.75" id="275">
        <route edges="0Ni 3Ni 6Ni 6So" />
    </vehicle>
    <vehicle depart="345.00" id="276">
        <route edges="5Ei 2Si 1Ei 0Ei 0No" />
    </vehicle>
    <vehicle depart="346.25" id="277">
        <route edges="2Ei 5Ni 4Ei 3Ei" />
    </vehicle>
    <vehicle depart="347.50" id="278">
        <route edges="1Ni 2Wi 5Ni 5Eo" />
    </vehicle>
    <vehicle depart="348.75" id="279">
        <route edges="8Si 5Si 2Si 2Eo" />
    </vehicle>
    <vehicle depart="350.00" id="280">
        <route edges="6Si 3Si 0Si 0No" />
    </vehicle>
    <vehicle depart="351.25" id="281">
        <route edges="8Ei 5Si 2Si 1Ei 0Ei 3Ni" />
    </vehicle>
    <vehicle depart="352.50" id="282">
        <route edges="5Ei 2Si 1Ei 0Ei 3Ni" />
    </vehicle>
    <vehicle depart="353.75" id="283">
        <route edges="8Si 5Si 2Si 2No" />
    </vehicle>
    <vehicle depart="355.00" id="284">
        <route edges="5Ei 4Ei 3Ei" />
    </vehicle>
    <vehicle depart="356.25" id="285">
        <route edges="6Wi 7Wi 4Si 5Wi" />
    </vehicle>
    <vehicle depart="357.50" id="286">
        <route edges="7Si 8Wi 5Si 5Eo" />
    </vehicle>
    <vehicle depart="358.75" id="287">
        <route edges="3Wi 4Wi 7Ni 7So" />
    </vehicle>
    <vehicle depart="360.00" id="288">
        <route edges="2Ni 5Ni 4Ei 3Ei 3Wo" />
    </vehicle>
    <vehicle depart="361.25" id="289">
        <route edges="8Si 5Si 4Ei 1Si" />
    </vehicle>
    <vehicle depart="362.50" id="290">
        <route edges="0Ni 1Wi 2Wi 5Ni 8Ni 8So" />
    </vehicle>
    <vehicle depart="363.75" id="291">
        <route edges="6Wi 7Wi 8Wi 8Eo" />
    </vehicle>
    <vehicle depart="365.00" id="292">
        <route edges="3Wi 4Wi 5Wi 2Si 2Eo" />
    </vehicle>
    <vehicle depart="366.25" id="293">
        <route edges="6Si 3Si 0Si" />
    </vehicle>
    <vehicle depart="367.50" id="294">
        <route edges="0Ni 3Ni 6Ni 6So" />
    </vehicle>
    <vehicle depart="368.75" id="295">
        <route edges="8Ei 5Si 4Ei 3Ei 6Ni" />
    </vehicle>
    <vehicle depart="370.00" id="296">
        <route edges="0Ni 1Wi 2Wi 2Eo" />
    </vehicle>
    <vehicle depart="371.25" id="297">
        <route edges="6Si 7Wi 4Si 1Si 0Ei" />
    </vehicle>
    <vehicle depart="372.50" id="298">
        <route edges="2Ni 5Ni 8Ni 7Ei 7So" />
    </vehicle>
    <vehicle depart="373.75" id="299">
        <route edges="8Ei 5Si 4Ei 3Ei 0Si" />
    </vehicle>
    <vehicle depart="375.00" id="300">
        <route edges="2Ei 1Ei 0Ei 0No" />
    </vehicle>
    <vehicle depart="376.25" id="301">
        <route edges="3Wi 4Wi 1Si 2Wi" />
    </vehicle>
    <vehicle depart="377.50" id="302">
        <route edges="6Wi 7Wi 8Wi 5Si 2Si 2Eo" />
    </vehicle>
    <vehicle depart="378.75" id="303">
        <route edges="5Ei 2Si 1Ei 0Ei 3Ni" />
    </vehicle>
    <vehicle depart="380.00" id="304">
        <route edges="3Wi 4Wi 5Wi 5Eo" />
    </vehicle>
    <vehicle depart="381.25" id="305">