<routes xmlns:xsi="http://www.w3.org/2001/XMLSchema-instance" xsi:noNamespaceSchemaLocation="http://sumo.dlr.de/xsd/routes_file.xsd">
    <vehicle depart="0.00" id="0">
        <route edges="2Ni 1Ei 0Ei 0Wo" />
    </vehicle>
    <vehicle depart="1.18" id="1">
        <route edges="8Ei 5Si 2Si 1Ei 0Ei 0No" />
    </vehicle>
    <vehicle depart="2.35" id="2">
        <route edges="8Ei 5Si 2Si 1Ei 1No" />
    </vehicle>
    <vehicle depart="3.53" id="3">
        <route edges="6Si 3Si 0Si" />
    </vehicle>
    <vehicle depart="4.71" id="4">
        <route edges="8Ei 5Si 2Si 1Ei 0Ei 0Wo" />
    </vehicle>
    <vehicle depart="5.88" id="5">
        <route edges="0Ni 1Wi 2Wi 5Ni 8Ni 8Eo" />
    </vehicle>
    <vehicle depart="7.06" id="6">
        <route edges="8Ei 7Ei 6Ei 6Wo" />
    </vehicle>
    <vehicle depart="8.24" id="7">
        <route edges="2Ni 5Ni 8Ni 7Ei" />
    </vehicle>
    <vehicle depart="9.41" id="8">
        <route edges="2Ei 5Ni 8Ni 7Ei 6Ei 3Si" />
    </vehicle>
    <vehicle depart="10.59" id="9">
        <route edges="6Wi 7Wi 8Wi 5Si" />
    </vehicle>
    <vehicle depart="11.76" id="10">
        <route edges="6Si 7Wi 8Wi 8Eo" />
    </vehicle>
    <vehicle depart="12.94" id="11">
        <route edges="7Si 4Si 1Si" />
    </vehicle>
    <vehicle depart="14.12" id="12">
        <route edges="6Si 7Wi 4Si 1Si" />
    </vehicle>
    <vehicle depart="15.29" id="13">
        <route edges="5Ei 4Ei 3Ei" />
    </vehicle>
    <vehicle depart="16.47" id="14">
        <route edges="6Si 7Wi 4Si 1Si 0Ei" />
    </vehicle>
    <vehicle depart="17.65" id="15">
        <route edges="5Ei 8Ni 7Ei 6Ei 6So" />
    </vehicle>
    <vehicle depart="18.82" id="16">
        <route edges="6Si 7Wi 8Wi 5Si 2Si 2Eo" />
    </vehicle>
    <vehicle depart="20.00" id="17">
        <route edges="7Si 4Si 1Si 0Ei 0No" />
    </vehicle>
    <vehicle depart="21.18" id="18">
        <route edges="2Ei 5Ni 4Ei 3Ei" />
    </vehicle>
    <vehicle depart="22.35" id="19">
        <route edges="2Ei 5Ni 4Ei 3Ei 3Wo" />
    </vehicle>
    <vehicle depart="23.53" id="20">
        <route edges="0Ni 1Wi 4Ni 7Ni 6Ei" />
    </vehicle>
    <vehicle depart="24.71" id="21">
        <route edges="2Ni 5Ni 4Ei 7Ni 8Wi" />
    </vehicle>
    <vehicle depart="25.88" id="22">
        <route edges="8Ei 5Si 4Ei 3Ei 0Si" />
    </vehicle>
    <vehicle depart="27.06" id="23">
        <route edges="0Wi 1Wi 4Ni 5Wi" />
    </vehicle>
    <vehicle depart="28.24" id="24">
        <route edges="8Ei 7Ei 6Ei 6Wo" />
    </vehicle>
    <vehicle depart="29.41" id="25">
        <route edges="2Ni 5Ni 4Ei 3Ei 6Ni 7Wi" />
    </vehicle>
    <vehicle depart="30.59" id="26">
        <route edges="6Wi 7Wi 8Wi" />
    </vehicle>
    <vehicle depart="31.76" id="27">
        <route edges="6Wi 7Wi 8Wi 5Si 2Si" />
    </vehicle>
    <vehicle depart="32.94" id="28">
        <route edges="7Si 4Si 1Si 0Ei 0No" />
    </vehicle>
    <vehicle depart="34.12" id="29">
        <route edges="2Ni 5Ni 8Ni 8Eo" />
    </vehicle>
    <vehicle depart="35.29" id="30">
        <route edges="2Ei 5Ni 8Ni 7Ei 6Ei 3Si" />
    </vehicle>
    <vehicle depart="36.47" id="31">
        <route edges="8Si 5Si 4Ei 3Ei 0Si" />
    </vehicle>
    <vehicle depart="37.65" id="32">
        <route edges="1Ni 2Wi 5Ni 5Eo" />
    </vehicle>
    <vehicle depart="38.82" id="33">
        <route edges="0Wi 1Wi 2Wi" />
    </vehicle>
    <vehicle depart="40.00" id="34">
        <route edges="7Si 8Wi 5Si 2Si 2No" />
    </vehicle>
    <vehicle depart="41.18" id="35">
        <route edges="7Si 8Wi 5Si 5Eo" />
    </vehicle>
    <vehicle depart="42.35" id="36">
        <route edges="0Wi 1Wi 4Ni 7Ni 8Wi 5Si" />
    </vehicle>
    <vehicle depart="43.53" id="37">
        <route edges="0Ni 3Ni 6Ni 7Wi" />
    </vehicle>
    <vehicle depart="44.71" id="38">
        <route edges="2Ni 5Ni 8Ni 7Ei 6Ei" />
    </vehicle>
    <vehicle depart="45.88" id="39">
        <route edges="1Ni 4Ni 7Ni 8Wi" />
    </vehicle>
    <vehicle depart="47.06" id="40">
        <route edges="1Ni 2Wi 5Ni 5Eo" />
    </vehicle>
    <vehicle depart="48.24" id="41">
        <route edges="2Ni 5Ni 8Ni" />
    </vehicle>
    <vehicle depart="49.41" id="42">
        <route edges="0Wi 1Wi 2Wi 2No" />
    </vehicle>
    <vehicle depart="50.59" id="43">
        <route edges="7Si 4Si 1Si 2Wi" />
    </vehicle>
    <vehicle depart="51.76" id="44">
        <route edges="8Si 5Si 2Si 1Ei 0Ei 0No" />
    </vehicle>
    <vehicle depart="52.94" id="45">
        <route edges="2Ni 1Ei 0Ei 0Wo" />
    </vehicle>
    <vehicle depart="54.12" id="46">
        <route edges="2Ei 5Ni 4Ei 3Ei 3Wo" />
    </vehicle>
    <vehicle depart="55.29" id="47">
        <route edges="8Ei 5Si 2Si 2No" />
    </vehicle>
    <vehicle depart="56.47" id="48">
        <route edges="8Si 5Si 4Ei 1Si" />
    </vehicle>
    <vehicle depart="57.65" id="49">
        <route edges="0Ni 1Wi 4Ni 7Ni 8Wi" />
    </vehicle>
    <vehicle depart="58.82" id="50">
        <route edges="7Si 8Wi 5Si 2Si" />
    </vehicle>
    <vehicle depart="60.00" id="51">
        <route edges="2Ei 1Ei 0Ei 3Ni" />
    </vehicle>
    <vehicle depart="61.18" id="52">
        <route edges="2Ni 5Ni 4Ei 3Ei 3Wo" />
    </vehicle>
    <vehicle depart="62.35" id="53">
        <route edges="5Ei 8Ni 7Ei 6Ei 6Wo" />
    </vehicle>
    <vehicle depart="63.53" id="54">
        <route edges="3Wi 4Wi 5Wi 2Si" />
    </vehicle>
    <vehicle depart="64.71" id="55">
        <route edges="1Ni 2Wi 5Ni 8Ni" />
    </vehicle>
    <vehicle depart="65.88" id="56">
        <route edges="0Ni 1Wi 2Wi 5Ni 8Ni" />
    </vehicle>
    <vehicle depart="67.06" id="57">
        <route edges="2Ni 5Ni 8Ni 7Ei" />
    </vehicle>
    <vehicle depart="68.24" id="58">
        <route edges="0Wi 1Wi 2Wi 5Ni 5Eo" />
    </vehicle>
    <vehicle depart="69.41" id="59">
        <route edges="7Si 4Si 3Ei 3Wo" />
    </vehicle>
    <vehicle depart="70.59" id="60">
        <route edges="8Ei 5Si 4Ei 3Ei 0Si" />
    </vehicle>
    <vehicle depart="71.76" id="61">
        <route edges="8Si 5Si 2Si 1Ei 0Ei" />
    </vehicle>
    <vehicle depart="72.94" id="62">
        <route edges="0Ni 1Wi 2Wi 5Ni 8Ni" />
    </vehicle>
    <vehicle depart="74.12" id="63">
        <route edges="3Wi 4Wi 5Wi 2Si" />
    </vehicle>
    <vehicle depart="75.29" id="64">
        <route edges="5Ei 8Ni 7Ei 6Ei 3Si" />
    </vehicle>
    <vehicle depart="76.47" id="65">
        <route edges="6Wi 7Wi 8Wi 8Eo" />
    </vehicle>
    <vehicle depart="77.65" id="66">
        <route edges="8Si 5Si 2Si 1Ei 0Ei 0Wo" />
    </vehicle>
    <vehicle depart="78.82" id="67">
        <route edges="6Si 7Wi 4Si 1Si 2Wi" />
    </vehicle>
    <vehicle depart="80.00" id="68">
        <route edges="0Ni 1Wi 4Ni 7Ni 6Ei" />
    </vehicle>
    <vehicle depart="81.18" id="69">
        <route edges="8Si 5Si 4Ei 1Si" />
    </vehicle>
    <vehicle depart="82.35" id="70">
        <route edges="8Ei 5Si 2Si 1Ei 0Ei" />
    </vehicle>
    <vehicle depart="83.53" id="71">
        <route edges="7Si 4Si 1Si 0Ei 0Wo" />
    </vehicle>
    <vehicle depart="84.71" id="72">
        <route edges="3Wi 4Wi 5Wi 8Ni" />
    </vehicle>
    <vehicle depart="85.88" id="73">
        <route edges="6Si 3Si 0Si" />
    </vehicle>
    <vehicle depart="87.06" id="74">
        <route edges="2Ni 5Ni 8Ni 8So" />
    </vehicle>
    <vehicle depart="88.24" id="75">
        <route edges="1Ni 4Ni 3Ei 3Wo" />
    </vehicle>
    <vehicle depart="89.41" id="76">
        <route edges="2Ni 5Ni 8Ni 7Ei" />
    </vehicle>
    <vehicle depart="90.59" id="77">
        <route edges="7Si 4Si 3Ei 0Si" />
    </vehicle>
    <vehicle depart="91.76" id="78">
        <route edges="0Ni 1Wi 2Wi 5Ni 8Ni" />
    </vehicle>
    <vehicle depart="92.94" id="79">
        <route edges="2Ei 5Ni 4Ei 3Ei 3Wo" />
    </vehicle>
    <vehicle depart="94.12" id="80">
        <route edges="2Ni 5Ni 8Ni 7Ei 6Ei" />
    </vehicle>
    <vehicle depart="95.29" id="81">
        <route edges="0Ni 3Ni 6Ni" />
    </vehicle>
    <vehicle depart="96.47" id="82">
        <route edges="0Wi 1Wi 2Wi 5Ni" />
    </vehicle>
    <vehicle depart="97.65" id="83">
        <route edges="6Si 3Si 0Si" />
    </vehicle>
    <vehicle depart="98.82" id="84">
        <route edges="7Si 8Wi 5Si 2Si" />
    </vehicle>
    <vehicle depart="100.00" id="85">
        <route edges="8Ei 7Ei 6Ei" />
    </vehicle>
    <vehicle depart="101.18" id="86">
        <route edges="0Wi 1Wi 4Ni 7Ni 8Wi" />
    </vehicle>
    <vehicle depart="102.35" id="87">
        <route edges="6Si 7Wi 8Wi 5Si 2Si 2No" />
    </vehicle>
    <vehicle depart="103.53" id="88">
        <route edges="8Ei 5Si 4Ei 3Ei 0Si" />
    </vehicle>
    <vehicle depart="104.71" id="89">
        <route edges="2Ni 5Ni 8Ni 7Ei 6Ei" />
    </vehicle>
    <vehicle depart="105.88" id="90">
        <route edges="7Si 8Wi 5Si 2Si 1Ei" />
    </vehicle>
    <vehicle depart="107.06" id="91">
        <route edges="0Wi 1Wi 4Ni 7Ni 7So" />
    </vehicle>
    <vehicle depart="108.24" id="92">
        <route edges="1Ni 4Ni 3Ei 6Ni 7Wi" />
    </vehicle>
    <vehicle depart="109.41" id="93">
        <route edges="7Si 4Si 3Ei 0Si" />
    </vehicle>
    <vehicle depart="110.59" id="94">
        <route edges="0Ni 1Wi 2Wi 5Ni 8Ni 7Ei" />
    </vehicle>
    <vehicle depart="111.76" id="95">
        <route edges="0Wi 1Wi 4Ni 5Wi 2Si" />
    </vehicle>
    <vehicle depart="112.94" id="96">
        <route edges="8Si 5Si 4Ei 3Ei 3Wo" />
    </vehicle>
    <vehicle depart="114.12" id="97">
        <route edges="0Wi 1Wi 4Ni 5Wi" />
    </vehicle>
    <vehicle depart="115.29" id="98">
        <route edges="0Ni 1Wi 2Wi 5Ni 5Eo" />
    </vehicle>
    <vehicle depart="116.47" id="99">
        <route edges="1Ni 2Wi 5Ni 5Eo" />
    </vehicle>
    <vehicle depart="117.65" id="100">
        <route edges="7Si 4Si 3Ei 3Wo" />
    </vehicle>
    <vehicle depart="118.82" id="101">
        <route edges="5Ei 2Si 1Ei 0Ei 3Ni" />
    </vehicle>
    <vehicle depart="120.00" id="102">
        <route edges="0Ni 1Wi 4Ni 7Ni 6Ei" />
    </vehicle>
    <vehicle depart="121.18" id="103">
        <route edges="0Wi 1Wi 4Ni 5Wi" />
    </vehicle>
    <vehicle depart="122.35" id="104">
        <route edges="6Si 3Si 0Si 0Wo" />
    </vehicle>
    <vehicle depart="123.53" id="105">
        <route edges="7Si 8Wi 5Si 2Si 1Ei" />
    </vehicle>
    <vehicle depart="124.71" id="106">
        <route edges="6Wi 7Wi 4Si 1Si 2Wi 5Ni" />
    </vehicle>
    <vehicle depart="125.88" id="107">
        <route edges="2Ni 5Ni 4Ei 3Ei 3Wo" />
    </vehicle>
    <vehicle depart="127.06" id="108">
        <route edges="2Ei 5Ni 8Ni 7Ei 6Ei 3Si" />
    </vehicle>
    <vehicle depart="128.24" id="109">
        <route edges="3Wi 4Wi 5Wi" />
    </vehicle>
    <vehicle depart="129.41" id="110">
        <route edges="6Si 7Wi 8Wi 5Si 2Si" />
    </vehicle>
    <vehicle depart="130.59" id="111">
        <route edges="0Wi 1Wi 4Ni 5Wi" />
    </vehicle>
    <vehicle depart="131.76" id="112">
        <route edges="0Ni 1Wi 2Wi 5Ni 5Eo" />
    </vehicle>
    <vehicle depart="132.94" id="113">
        <route edges="5Ei 4Ei 3Ei" />
    </vehicle>
    <vehicle depart="134.12" id="114">
        <route edges="2Ni 5Ni 8Ni 8Eo" />
    </vehicle>
    <vehicle depart="135.29" id="115">
        <route edges="1Ni 4Ni 7Ni 6Ei 6So" />
    </vehicle>
    <vehicle depart="136.47" id="116">
        <route edges="8Ei 7Ei 6Ei" />
    </vehicle>
    <vehicle depart="137.65" id="117">
        <route edges="6Wi 7Wi 4Si 1Si 1No" />
    </vehicle>
    <vehicle depart="138.82" id="118">
        <route edges="8Si 5Si 2Si 1Ei 1No" />
    </vehicle>
    <vehicle depart="140.00" id="119">
        <route edges="7Si 4Si 1Si" />
    </vehicle>
    <vehicle depart="141.18" id="120">
        <route edges="1Ni 2Wi 5Ni 5Eo" />
    </vehicle>
    <vehicle depart="142.35" id="121">
        <route edges="1Ni 2Wi 5Ni 8Ni 8So" />
    </vehicle>
    <vehicle depart="143.53" id="122">
        <route edges="1Ni 4Ni 7Ni 8Wi" />
    </vehicle>
    <vehicle depart="144.71" id="123">
        <route edges="5Ei 2Si 1Ei 0Ei" />
    </vehicle>
    <vehicle depart="145.88" id="124">
        <route edges="6Wi 7Wi 8Wi 5Si" />
    </vehicle>
    <vehicle depart="147.06" id="125">
        <route edges="1Ni 4Ni 3Ei 3Wo" />
    </vehicle>
    <vehicle depart="148.24" id="126">
        <route edges="8Ei 5Si 4Ei 3Ei 6Ni" />
    </vehicle>
    <vehicle depart="149.41" id="127">
        <route edges="8Si 5Si 4Ei 3Ei 3Wo" />
    </vehicle>
    <vehicle depart="150.59" id="128">
        <route edges="5Ei 8Ni 7Ei 6Ei" />
    </vehicle>
    <vehicle depart="151.76" id="129">
        <route edges="5Ei 8Ni 7Ei 6Ei 6So" />
    </vehicle>
    <vehicle depart="152.94" id="130">
        <route edges="6Si 3Si 0Si 0No" />
    </vehicle>
    <vehicle depart="154.12" id="131">
        <route edges="3Wi 4Wi 7Ni 7So" />
    </vehicle>
    <vehicle depart="155.29" id="132">
        <route edges="0Wi 1Wi 2Wi 5Ni 8Ni 8So" />
    </vehicle>
    <vehicle depart="156.47" id="133">
        <route edges="0Ni 1Wi 2Wi 5Ni 5Eo" />
    </vehicle>
    <vehicle depart="157.65" id="134">
        <route edges="8Si 5Si 2Si 1Ei 0Ei" />
    </vehicle>
    <vehicle depart="158.82" id="135">
        <route edges="2Ei 5Ni 8Ni 7Ei 6Ei 3Si" />
    </vehicle>
    <vehicle depart="160.00" id="136">
        <route edges="2Ni 5Ni 8Ni" />
    </vehicle>
    <vehicle depart="161.18" id="137">
        <route edges="0Wi 1Wi 2Wi 2No" />
    </vehicle>
    <vehicle depart="162.35" id="138">
        <route edges="1Ni 4Ni 3Ei 6Ni 7Wi" />
    </vehicle>
    <vehicle depart="163.53" id="139">
        <route edges="3Wi 4Wi 5Wi" />
    </vehicle>
    <vehicle depart="164.71" id="140">
        <route edges="2Ni 5Ni 4Ei 7Ni" />
    </vehicle>
    <vehicle depart="165.88" id="141">
        <route edges="5Ei 2Si 1Ei 0Ei 0No" />
    </vehicle>
    <vehicle depart="167.06" id="142">
        <route edges="6Wi 7Wi 4Si 1Si 1No" />
    </vehicle>
    <vehicle depart="168.24" id="143">
        <route edges="2Ei 5Ni 8Ni 7Ei 6Ei 6Wo" />
    </vehicle>
    <vehicle depart="169.41" id="144">
        <route edges="3Wi 4Wi 5Wi 8Ni 8Eo" />
    </vehicle>
    <vehicle depart="170.59" id="145">
        <route edges="3Wi 4Wi 5Wi 8Ni 8Eo" />
    </vehicle>
    <vehicle depart="171.76" id="146">
        <route edges="0Ni 3Ni 6Ni" />
    </vehicle>
    <vehicle depart="172.94" id="147">
        <route edges="7Si 4Si 3Ei 3Wo" />
    </vehicle>
    <vehicle depart="174.12" id="148">
        <route edges="7Si 4Si 1Si" />
    </vehicle>
    <vehicle depart="175.29" id="149">
        <route edges="6Si 7Wi 8Wi 5Si 2Si 1Ei" />
    </vehicle>
    <vehicle depart="176.47" id="150">
        <route edges="1Ni 4Ni 3Ei 6Ni" />
    </vehicle>
    <vehicle depart="177.65" id="151">
        <route edges="0Wi 1Wi 2Wi 5Ni 8Ni 8So" />
    </vehicle>
    <vehicle depart="178.82" id="152">
        <route edges="0Wi 1Wi 2Wi 2No" />
    </vehicle>
    <vehicle depart="180.00" id="153">
        <route edges="1Ni 4Ni 7Ni" />
    </vehicle>
    <vehicle depart="181.18" id="154">
        <route edges="0Ni 3Ni 6Ni 7Wi" />
    </vehicle>
    <vehicle depart="182.35" id="155">
        <route edges="8Si 7Ei 6Ei 6Wo" />
    </vehicle>
    <vehicle depart="183.53" id="156">
        <route edges="6Si 7Wi 4Si 1Si 0Ei" />
    </vehicle>
    <vehicle depart="184.71" id="157">
        <route edges="0Wi 1Wi 2Wi" />
    </vehicle>
    <vehicle depart="185.88" id="158">
        <route edges="6Si 7Wi 4Si 1Si 1No" />
    </vehicle>
    <vehicle depart="187.06" id="159">
        <route edges="0Ni 1Wi 2Wi 2Eo" />
    </vehicle>
    <vehicle depart="188.24" id="160">
        <route edges="2Ni 1Ei 0Ei 0Wo" />
    </vehicle>
    <vehicle depart="189.41" id="161">
        <route edges="8Ei 5Si 4Ei 3Ei 3Wo" />
    </vehicle>
    <vehicle depart="190.59" id="162">
        <route edges="0Wi 1Wi 2Wi 5Ni 5Eo" />
    </vehicle>
    <vehicle depart="191.76" id="163">
        <route edges="1Ni 4Ni 7Ni 6Ei 6Wo" />
    </vehicle>
    <vehicle depart="192.94" id="164">
        <route edges="5Ei 8Ni 7Ei 6Ei 6So" />
    </vehicle>
    <vehicle depart="194.12" id="165">
        <route edges="2Ei 5Ni 4Ei 3Ei 3Wo" />
    </vehicle>
    <vehicle depart="195.29" id="166">
        <route edges="6Si 7Wi 8Wi 8Eo" />
    </vehicle>
    <vehicle depart="196.47" id="167">
        <route edges="0Wi 1Wi 2Wi 2Eo" />
    </vehicle>
    <vehicle depart="197.65" id="168">
        <route edges="1Ni 2Wi 5Ni 8Ni 8Eo" />
    </vehicle>
    <vehicle depart="198.82" id="169">
        <route edges="0Wi 1Wi 4Ni 5Wi 2Si" />
    </vehicle>
    <vehicle depart="200.00" id="170">
        <route edges="6Wi 7Wi 8Wi 5Si" />
    </vehicle>
    <vehicle depart="201.18" id="171">
        <route edges="6Wi 7Wi 8Wi 5Si 2Si 2Eo" />
    </vehicle>
    <vehicle depart="202.35" id="172">
        <route edges="6Si 7Wi 8Wi 5Si 2Si 2Eo" />
    </vehicle>
    <vehicle depart="203.53" id="173">
        <route edges="8Si 5Si 4Ei 3Ei 0Si" />
    </vehicle>
    <vehicle depart="204.71" id="174">
        <route edges="2Ei 5Ni 8Ni 8So" />
    </vehicle>
    <vehicle depart="205.88" id="175">
        <route edges="0Ni 3Ni 6Ni" />
    </vehicle>
    <vehicle depart="207.06" id="176">
        <route edges="8Si 5Si 4Ei 3Ei 0Si" />
    </vehicle>
    <vehicle depart="208.24" id="177">
        <route edges="3Wi 4Wi 1Si 2Wi" />
    </vehicle>
    <vehicle depart="209.41" id="178">
        <route edges="3Wi 4Wi 5Wi 2Si" />
    </vehicle>
    <vehicle depart="210.59" id="179">
        <route edges="2Ni 5Ni 8Ni 7Ei 7So" />
    </vehicle>
    <vehicle depart="211.76" id="180">
        <route edges="8Si 5Si 2Si 2No" />
    </vehicle>
    <vehicle depart="212.94" id="181">
        <route edges="5Ei 2Si 1Ei 0Ei 0Wo" />
    </vehicle>
    <vehicle depart="214.12" id="182">
        <route edges="0Ni 3Ni 6Ni" />
    </vehicle>
    <vehicle depart="215.29" id="183">
        <route edges="1Ni 4Ni 7Ni 6Ei" />
    </vehicle>
    <vehicle depart="216.47" id="184">
        <route edges="5Ei 8Ni 7Ei 6Ei 6So" />
    </vehicle>
    <vehicle depart="217.65" id="185">
        <route edges="2Ni 5Ni 4Ei 3Ei 6Ni" />
    </vehicle>
    <vehicle depart="218.82" id="186">
        <route edges="0Wi 1Wi 2Wi 5Ni" />
    </vehicle>
    <vehicle depart="220.00" id="187">
        <route edges="2Ei 5Ni 4Ei 3Ei 6Ni" />
    </vehicle>
    <vehicle depart="221.18" id="188">
        <route edges="8Si 5Si 2Si 1Ei 0Ei 0No" />
    </vehicle>
    <vehicle depart="222.35" id="189">
        <route edges="6Wi 7Wi 4Si 5Wi" />
    </vehicle>
    <vehicle depart="223.53" id="190">
        <route edges="2Ni 5Ni 4Ei 3Ei 3Wo" />
    </vehicle>
    <vehicle depart="224.71" id="191">
        <route edges="1Ni 4Ni 7Ni 6Ei 6Wo" />
    </vehicle>
    <vehicle depart="225.88" id="192">
        <route edges="8Si 5Si 2Si" />
    </vehicle>
    <vehicle depart="227.06" id="193">
        <route edges="8Si 5Si 2Si 2No" />
    </vehicle>
    <vehicle depart="228.24" id="194">
        <route edges="3Wi 4Wi 5Wi 8Ni 8Eo" />
    </vehicle>
    <vehicle depart="229.41" id="195">
        <route edges="0Ni 1Wi 2Wi 5Ni 8Ni 8So" />
    </vehicle>
    <vehicle depart="230.59" id="196">
        <route edges="3Wi 4Wi 7Ni 8Wi 5Si" />
    </vehicle>
    <vehicle depart="231.76" id="197">
        <route edges="2Ei 5Ni 8Ni 7Ei 6Ei 3Si" />
    </vehicle>
    <vehicle depart="232.94" id="198">
        <route edges="6Si 3Si 0Si 1Wi" />
    </vehicle>
    <vehicle depart="234.12" id="199">
        <route edges="0Ni 1Wi 4Ni 7Ni 6Ei" />
    </vehicle>
    <vehicle depart="235.29" id="200">
        <route edges="2Ei 5Ni 8Ni 7Ei 7So" />
    </vehicle>
    <vehicle depart="236.47" id="201">
        <route edges="0Wi 1Wi 2Wi 5Ni 8Ni 8So" />
    </vehicle>
    <vehicle depart="237.65" id="202">
        <route edges="0Ni 3Ni 6Ni 6Wo" />
    </vehicle>
    <vehicle depart="238.82" id="203">
        <route edges="2Ni 5Ni 8Ni 7Ei 6Ei 6Wo" />
    </vehicle>
    <vehicle depart="240.00" id="204">
        <route edges="2Ni 5Ni 8Ni 7Ei 6Ei 6So" />
    </vehicle>
    <vehicle depart="241.18" id="205">
        <route edges="6Wi 7Wi 4Si 5Wi" />
    </vehicle>
    <vehicle depart="242.35" id="206">
        <route edges="2Ei 5Ni 8Ni 7Ei 6Ei 3Si" />
    </vehicle>
    <vehicle depart="243.53" id="207">
        <route edges="3Wi 4Wi 7Ni 8Wi 5Si" />
    </vehicle>
    <vehicle depart="244.71" id="208">
        <route edges="7Si 8Wi 5Si 2Si 2No" />
    </vehicle>
    <vehicle depart="245.88" id="209">
        <route edges="6Si 7Wi 4Si 1Si 1No" />
    </vehicle>
    <vehicle depart="247.06" id="210">
        <route edges="0Wi 1Wi 4Ni 5Wi" />
    </vehicle>
    <vehicle depart="248.24" id="211">
        <route edges="6Wi 7Wi 4Si 5Wi" />
    </vehicle>
    <vehicle depart="249.41" id="212">
        <route edges="5Ei 2Si 1Ei 0Ei 3Ni" />
    </vehicle>
    <vehicle depart="250.59" id="213">
        <route edges="6Wi 7Wi 4Si 5Wi 8Ni" />
    </vehicle>
    <vehicle depart="251.76" id="214">
        <route edges="0Ni 1Wi 2Wi 5Ni 8Ni 8So" />
    </vehicle>
    <vehicle depart="252.94" id="215">
        <route edges="6Wi 7Wi 8Wi 5Si 2Si 2Eo" />
    </vehicle>
    <vehicle depart="254.12" id="216">
        <route edges="8Ei 5Si 4Ei 3Ei" />
    </vehicle>
    <vehicle depart="255.29" id="217">
        <route edges="3Wi 4Wi 1Si 2Wi" />
    </vehicle>
    <vehicle depart="256.47" id="218">
        <route edges="2Ni 5Ni 8Ni 7Ei 6Ei 6So" />
    </vehicle>
    <vehicle depart="257.65" id="219">
        <route edges="5Ei 2Si 1Ei 0Ei 0No" />
    </vehicle>
    <vehicle depart="258.82" id="220">
        <route edges="0Ni 1Wi 2Wi 5Ni 8Ni" />
    </vehicle>
    <vehicle depart="260.00" id="221">
        <route edges="0Wi 1Wi 2Wi 5Ni 8Ni 8So" />
    </vehicle>
    <vehicle depart="261.18" id="222">
        <route edges="6Wi 7Wi 8Wi 5Si 5Eo" />
    </vehicle>
    <vehicle depart="262.35" id="223">
        <route edges="6Wi 7Wi 8Wi 5Si 2Si 2Eo" />
    </vehicle>
    <vehicle depart="263.53" id="224">
        <route edges="0Wi 1Wi 2Wi 2Eo" />
    </vehicle>
    <vehicle depart="264.71" id="225">
        <route edges="0Wi 1Wi 2Wi 2Eo" />
    </vehicle>
    <vehicle depart="265.88" id="226">
        <route edges="2Ni 5Ni 4Ei 3Ei 6Ni 7Wi" />
    </vehicle>
    <vehicle depart="267.06" id="227">
        <route edges="1Ni 2Wi 5Ni 8Ni" />
    </vehicle>
    <vehicle depart="268.24" id="228">
        <route edges="6Wi 7Wi 8Wi 5Si 2Si" />
    </vehicle>
    <vehicle depart="269.41" id="229">
        <route edges="1Ni 4Ni 7Ni 7So" />
    </vehicle>
    <vehicle depart="270.59" id="230">
        <route edges="1Ni 4Ni 3Ei 3Wo" />
    </vehicle>
    <vehicle depart="271.76" id="231">
        <route edges="0Ni 1Wi 2Wi 5Ni 8Ni 7Ei" />
    </vehicle>
    <vehicle depart="272.94" id="232">
        <route edges="8Ei 7Ei 6Ei 3Si" />
    </vehicle>
    <vehicle depart="274.12" id="233">
        <route edges="5Ei 4Ei 3Ei 6Ni" />
    </vehicle>
    <vehicle depart="275.29" id="234">
        <route edges="0Wi 1Wi 2Wi 5Ni 8Ni 8So" />
    </vehicle>
    <vehicle depart="276.47" id="235">
        <route edges="6Si 7Wi 8Wi 5Si 5Eo" />
    </vehicle>
    <vehicle depart="277.65" id="236">
        <route edges="0Ni 1Wi 2Wi 5Ni 8Ni" />
    </vehicle>
    <vehicle depart="278.82" id="237">
        <route edges="0Wi 1Wi 4Ni 7Ni 8Wi" />
    </vehicle>
    <vehicle depart="280.00" id="238">
        <route edges="6Si 7Wi 4Si 1Si 2Wi" />
    </vehicle>
    <vehicle depart="281.18" id="239">
        <route edges="6Wi 7Wi 8Wi 8Eo" />
    </vehicle>
    <vehicle depart="282.35" id="240">
        <route edges="2Ei 1Ei 0Ei 0Wo" />
    </vehicle>
    <vehicle depart="283.53" id="241">
        <route edges="2Ni 5Ni 4Ei 3Ei 6Ni" />
    </vehicle>
    <vehicle depart="284.71" id="242">
        <route edges="8Ei 5Si 4Ei 3Ei 6Ni" />
    </vehicle>
    <vehicle depart="285.88" id="243">
        <route edges="0Wi 1Wi 4Ni 7Ni 8Wi 5Si" />
    </vehicle>
    <vehicle depart="287.06" id="244">
        <route edges="6Wi 7Wi 8Wi 5Si 2Si" />
    </vehicle>
    <vehicle depart="288.24" id="245">
        <route edges="1Ni 4Ni 7Ni 8Wi" />
    </vehicle>
    <vehicle depart="289.41" id="246">
        <route edges="5Ei 2Si 1Ei 0Ei 0No" />
    </vehicle>
    <vehicle depart="290.59" id="247">
        <route edges="5Ei 2Si 1Ei 0Ei 3Ni" />
    </vehicle>
    <vehicle depart="291.76" id="248">
        <route edges="2Ei 5Ni 8Ni 7Ei 7So" />
    </vehicle>
    <vehicle depart="292.94" id="249">
        <route edges="2Ei 5Ni 8Ni 7Ei 6Ei" />
    </vehicle>
    <vehicle depart="294.12" id="250">
        <route edges="1Ni 4Ni 7Ni 6Ei" />
    </vehicle>
    <vehicle depart="295.29" id="251">
        <route edges="5Ei 8Ni 7Ei 6Ei" />
    </vehicle>
    <vehicle depart="296.47" id="252">
        <route edges="1Ni 2Wi 5Ni 8Ni 8So" />
    </vehicle>
    <vehicle depart="297.65" id="253">
        <route edges="0Ni 3Ni 6Ni" />
    </vehicle>
    <vehicle depart="298.82" id="254">
        <route edges="8Si 5Si 4Ei 3Ei 0Si" />
    </vehicle>
    <vehicle depart="300.00" id="255">
        <route edges="8Ei 5Si 2Si 1Ei 0Ei 3Ni" />
    </vehicle>
    <vehicle depart="301.18" id="256">
        <route edges="8Ei 5Si 2Si 1Ei 1No" />
    </vehicle>
    <vehicle depart="302.35" id="257">
        <route edges="7Si 4Si 1Si 1No" />
    </vehicle>
    <vehicle depart="303.53" id="258">
        <route edges="0Wi 1Wi 2Wi 5Ni 8Ni 8So" />
    </vehicle>
    <vehicle depart="304.71" id="259">
        <route edges="1Ni 4Ni 3Ei 3Wo" />
    </vehicle>
    <vehicle depart="305.88" id="260">
        <route edges="6Wi 7Wi 8Wi" />
    </vehicle>
    <vehicle depart="307.06" id="261">
        <route edges="6Wi 7Wi 8Wi 5Si 5Eo" />
    </vehicle>
    <vehicle depart="308.24" id="262">
        <route edges="0Wi 1Wi 2Wi 5Ni" />
    </vehicle>
    <vehicle depart="309.41" id="263">
        <route edges="3Wi 4Wi 5Wi 2Si" />
    </vehicle>
    <vehicle depart="310.59" id="264">
        <route edges="8Ei 5Si 2Si 1Ei 0Ei 3Ni" />
    </vehicle>
    <vehicle depart="311.76" id="265">
        <route edges="3Wi 4Wi 5Wi 8Ni 8So" />
    </vehicle>
    <vehicle depart="312.94" id="266">
        <route edges="2Ni 5Ni 8Ni 7Ei 6Ei 6Wo" />
    </vehicle>
    <vehicle depart="314.12" id="267">
        <route edges="2Ni 5Ni 8Ni 7Ei 6Ei 6Wo" />
    </vehicle>
    <vehicle depart="315.29" id="268">
        <route edges="0Wi 1Wi 2Wi" />
    </vehicle>
    <vehicle depart="316.47" id="269">
        <route edges="0Ni 1Wi 4Ni 7Ni 6Ei" />
    </vehicle>
    <vehicle depart="317.65" id="270">
        <route edges="2Ni 5Ni 4Ei 7Ni" />
    </vehicle>
    <vehicle depart="318.82" id="271">
        <route edges="2Ni 5Ni 8Ni 8So" />
    </vehicle>
    <vehicle depart="320.00" id="272">
        <route edges="2Ni 5Ni 8Ni 8Eo" />
    </vehicle>
    <vehicle depart="321.18" id="273">
        <route edges="0Ni 1Wi 4Ni 7Ni 7So" />
    </vehicle>
    <vehicle depart="322.35" id="274">
        <route edges="8Si 5Si 4Ei 3Ei 0Si 1Wi" />
    </vehicle>
    <vehicle depart="323.53" id="275">
        <route edges="0Ni 3Ni 6Ni 6So" />
    </vehicle>
    <vehicle depart="324.71" id="276">
        <route edges="5Ei 2Si 1Ei 0Ei 0No" />
    </vehicle>
    <vehicle depart="325.88" id="277">
        <route edges="2Ei 5Ni 4Ei 3Ei" />
    </vehicle>
    <vehicle depart="327.06" id="278">
        <route edges="1Ni 2Wi 5Ni 5Eo" />
    </vehicle>
    <vehicle depart="328.24" id="279">
        <route edges="8Si 5Si 2Si 2Eo" />
    </vehicle>
    <vehicle depart="329.41" id="280">
        <route edges="6Si 3Si 0Si 0No" />
    </vehicle>
    <vehicle depart="330.59" id="281">
        <route edges="8Ei 5Si 2Si 1Ei 0Ei 3Ni" />
    </vehicle>
    <vehicle depart="331.76" id="282">
        <route edges="5Ei 2Si 1Ei 0Ei 3Ni" />
    </vehicle>
    <vehicle depart="332.94" id="283">
        <route edges="8Si 5Si 2Si 2No" />
    </vehicle>
    <vehicle depart="334.12" id="284">
        <route edges="5Ei 4Ei 3Ei" />
    </vehicle>
    <vehicle depart="335.29" id="285">
        <route edges="6Wi 7Wi 4Si 5Wi" />
    </vehicle>
    <vehicle depart="336.47" id="286">
        <route edges="7Si 8Wi 5Si 5Eo" />
    </vehicle>
    <vehicle depart="337.65" id="287">
        <route edges="3Wi 4Wi 7Ni 7So" />
    </vehicle>
    <vehicle depart="338.82" id="288">
        <route edges="2Ni 5Ni 4Ei 3Ei 3Wo" />
    </vehicle>
    <vehicle depart="340.00" id="289">
        <route edges="8Si 5Si 4Ei 1Si" />
    </vehicle>
    <vehicle depart="341.18" id="290">
        <route edges="0Ni 1Wi 2Wi 5Ni 8Ni 8So" />
    </vehicle>
    <vehicle depart="342.35" id="291">
        <route edges="6Wi 7Wi 8Wi 8Eo" />
    </vehicle>
    <vehicle depart="343.53" id="292">
        <route edges="3Wi 4Wi 5Wi 2Si 2Eo" />
    </vehicle>
    <vehicle depart="344.71" id="293">
        <route edges="6Si 3Si 0Si" />
    </vehicle>
    <vehicle depart="345.88" id="294">
        <route edges="0Ni 3Ni 6Ni 6So" />
    </vehicle>
    <vehicle depart="347.06" id="295">
        <route edges="8Ei 5Si 4Ei 3Ei 6Ni" />
    </vehicle>
    <vehicle depart="348.24" id="296">
        <route edges="0Ni 1Wi 2Wi 2Eo" />
    </vehicle>
    <vehicle depart="349.41" id="297">
        <route edges="6Si 7Wi 4Si 1Si 0Ei" />
    </vehicle>
    <vehicle depart="350.59" id="298">
        <route edges="2Ni 5Ni 8Ni 7Ei 7So" />
    </vehicle>
    <vehicle depart="351.76" id="299">
        <route edges="8Ei 5Si 4Ei 3Ei 0Si" />
    </vehicle>
    <vehicle depart="352.94" id="300">
        <route edges="2Ei 1Ei 0Ei 0No" />
    </vehicle>
    <vehicle depart="354.12" id="301">
        <route edges="3Wi 4Wi 1Si 2Wi" />
    </vehicle>
    <vehicle depart="355.29" id="302">
        <route edges="6Wi 7Wi 8Wi 5Si 2Si 2Eo" />
    </vehicle>
    <vehicle depart="356.47" id="303">
        <route edges="5Ei 2Si 1Ei 0Ei 3Ni" />
    </vehicle>
    <vehicle depart="357.65" id="304">
        <route edges="3Wi 4Wi 5Wi 5Eo" />
    </vehicle>
    <vehicle depart="358.82" id="305">