<routes xmlns:xsi="http://www.w3.org/2001/XMLSchema-instance" xsi:noNamespaceSchemaLocation="http://sumo.dlr.de/xsd/routes_file.xsd">
    <vehicle depart="0.00" id="0">
        <route edges="2Ni 1Ei 0Ei 0Wo" />
    </vehicle>
    <vehicle depart="1.11" id="1">
        <route edges="8Ei 5Si 2Si 1Ei 0Ei 0No" />
    </vehicle>
    <vehicle depart="2.22" id="2">
        <route edges="8Ei 5Si 2Si 1Ei 1No" />
    </vehicle>
    <vehicle depart="3.33" id="3">
        <route edges="6Si 3Si 0Si" />
    </vehicle>
    <vehicle depart="4.44" id="4">
        <route edges="8Ei 5Si 2Si 1Ei 0Ei 0Wo" />
    </vehicle>
    <vehicle depart="5.56" id="5">
        <route edges="0Ni 1Wi 2Wi 5Ni 8Ni 8Eo" />
    </vehicle>
    <vehicle depart="6.67" id="6">
        <route edges="8Ei 7Ei 6Ei 6Wo" />
    </vehicle>
    <vehicle depart="7.78" id="7">
        <route edges="2Ni 5Ni 8Ni 7Ei" />
    </vehicle>
    <vehicle depart="8.89" id="8">
        <route edges="2Ei 5Ni 8Ni 7Ei 6Ei 3Si" />
    </vehicle>
    <vehicle depart="10.00" id="9">
        <route edges="6Wi 7Wi 8Wi 5Si" />
    </vehicle>
    <vehicle depart="11.11" id="10">
        <route edges="6Si 7Wi 8Wi 8Eo" />
    </vehicle>
    <vehicle depart="12.22" id="11">
        <route edges="7Si 4Si 1Si" />
    </vehicle>
    <vehicle depart="13.33" id="12">
        <route edges="6Si 7Wi 4Si 1Si" />
    </vehicle>
    <vehicle depart="14.44" id="13">
        <route edges="5Ei 4Ei 3Ei" />
    </vehicle>
    <vehicle depart="15.56" id="14">
        <route edges="6Si 7Wi 4Si 1Si 0Ei" />
    </vehicle>
    <vehicle depart="16.67" id="15">
        <route edges="5Ei 8Ni 7Ei 6Ei 6So" />
    </vehicle>
    <vehicle depart="17.78" id="16">
        <route edges="6Si 7Wi 8Wi 5Si 2Si 2Eo" />
    </vehicle>
    <vehicle depart="18.89" id="17">
        <route edges="7Si 4Si 1Si 0Ei 0No" />
    </vehicle>
    <vehicle depart="20.00" id="18">
        <route edges="2Ei 5Ni 4Ei 3Ei" />
    </vehicle>
    <vehicle depart="21.11" id="19">
        <route edges="2Ei 5Ni 4Ei 3Ei 3Wo" />
    </vehicle>
    <vehicle depart="22.22" id="20">
        <route edges="0Ni 1Wi 4Ni 7Ni 6Ei" />
    </vehicle>
    <vehicle depart="23.33" id="21">
        <route edges="2Ni 5Ni 4Ei 7Ni 8Wi" />
    </vehicle>
    <vehicle depart="24.44" id="22">
        <route edges="8Ei 5Si 4Ei 3Ei 0Si" />
    </vehicle>
    <vehicle depart="25.56" id="23">
        <route edges="0Wi 1Wi 4Ni 5Wi" />
    </vehicle>
    <vehicle depart="26.67" id="24">
        <route edges="8Ei 7Ei 6Ei 6Wo" />
    </vehicle>
    <vehicle depart="27.78" id="25">
        <route edges="2Ni 5Ni 4Ei 3Ei 6Ni 7Wi" />
    </vehicle>
    <vehicle depart="28.89" id="26">
        <route edges="6Wi 7Wi 8Wi" />
    </vehicle>
    <vehicle depart="30.00" id="27">
        <route edges="6Wi 7Wi 8Wi 5Si 2Si" />
    </vehicle>
    <vehicle depart="31.11" id="28">
        <route edges="7Si 4Si 1Si 0Ei 0No" />
    </vehicle>
    <vehicle depart="32.22" id="29">
        <route edges="2Ni 5Ni 8Ni 8Eo" />
    </vehicle>
    <vehicle depart="33.33" id="30">
        <route edges="2Ei 5Ni 8Ni 7Ei 6Ei 3Si" />
    </vehicle>
    <vehicle depart="34.44" id="31">
        <route edges="8Si 5Si 4Ei 3Ei 0Si" />
    </vehicle>
    <vehicle depart="35.56" id="32">
        <route edges="1Ni 2Wi 5Ni 5Eo" />
    </vehicle>
    <vehicle depart="36.67" id="33">
        <route edges="0Wi 1Wi 2Wi" />
    </vehicle>
    <vehicle depart="37.78" id="34">
        <route edges="7Si 8Wi 5Si 2Si 2No" />
    </vehicle>
    <vehicle depart="38.89" id="35">
        <route edges="7Si 8Wi 5Si 5Eo" />
    </vehicle>
    <vehicle depart="40.00" id="36">
        <route edges="0Wi 1Wi 4Ni 7Ni 8Wi 5Si" />
    </vehicle>
    <vehicle depart="41.11" id="37">
        <route edges="0Ni 3Ni 6Ni 7Wi" />
    </vehicle>
    <vehicle depart="42.22" id="38">
        <route edges="2Ni 5Ni 8Ni 7Ei 6Ei" />
    </vehicle>
    <vehicle depart="43.33" id="39">
        <route edges="1Ni 4Ni 7Ni 8Wi" />
    </vehicle>
    <vehicle depart="44.44" id="40">
        <route edges="1Ni 2Wi 5Ni 5Eo" />
    </vehicle>
    <vehicle depart="45.56" id="41">
        <route edges="2Ni 5Ni 8Ni" />
    </vehicle>
    <vehicle depart="46.67" id="42">
        <route edges="0Wi 1Wi 2Wi 2No" />
    </vehicle>
    <vehicle depart="47.78" id="43">
        <route edges="7Si 4Si 1Si 2Wi" />
    </vehicle>
    <vehicle depart="48.89" id="44">
        <route edges="8Si 5Si 2Si 1Ei 0Ei 0No" />
    </vehicle>
    <vehicle depart="50.00" id="45">
        <route edges="2Ni 1Ei 0Ei 0Wo" />
    </vehicle>
    <vehicle depart="51.11" id="46">
        <route edges="2Ei 5Ni 4Ei 3Ei 3Wo" />
    </vehicle>
    <vehicle depart="52.22" id="47">
        <route edges="8Ei 5Si 2Si 2No" />
    </vehicle>
    <vehicle depart="53.33" id="48">
        <route edges="8Si 5Si 4Ei 1Si" />
    </vehicle>
    <vehicle depart="54.44" id="49">
        <route edges="0Ni 1Wi 4Ni 7Ni 8Wi" />
    </vehicle>
    <vehicle depart="55.56" id="50">
        <route edges="7Si 8Wi 5Si 2Si" />
    </vehicle>
    <vehicle depart="56.67" id="51">
        <route edges="2Ei 1Ei 0Ei 3Ni" />
    </vehicle>
    <vehicle depart="57.78" id="52">
        <route edges="2Ni 5Ni 4Ei 3Ei 3Wo" />
    </vehicle>
    <vehicle depart="58.89" id="53">
        <route edges="5Ei 8Ni 7Ei 6Ei 6Wo" />
    </vehicle>
    <vehicle depart="60.00" id="54">
        <route edges="3Wi 4Wi 5Wi 2Si" />
    </vehicle>
    <vehicle depart="61.11" id="55">
        <route edges="1Ni 2Wi 5Ni 8Ni" />
    </vehicle>
    <vehicle depart="62.22" id="56">
        <route edges="0Ni 1Wi 2Wi 5Ni 8Ni" />
    </vehicle>
    <vehicle depart="63.33" id="57">
        <route edges="2Ni 5Ni 8Ni 7Ei" />
    </vehicle>
    <vehicle depart="64.44" id="58">
        <route edges="0Wi 1Wi 2Wi 5Ni 5Eo" />
    </vehicle>
    <vehicle depart="65.56" id="59">
        <route edges="7Si 4Si 3Ei 3Wo" />
    </vehicle>
    <vehicle depart="66.67" id="60">
        <route edges="8Ei 5Si 4Ei 3Ei 0Si" />
    </vehicle>
    <vehicle depart="67.78" id="61">
        <route edges="8Si 5Si 2Si 1Ei 0Ei" />
    </vehicle>
    <vehicle depart="68.89" id="62">
        <route edges="0Ni 1Wi 2Wi 5Ni 8Ni" />
    </vehicle>
    <vehicle depart="70.00" id="63">
        <route edges="3Wi 4Wi 5Wi 2Si" />
    </vehicle>
    <vehicle depart="71.11" id="64">
        <route edges="5Ei 8Ni 7Ei 6Ei 3Si" />
    </vehicle>
    <vehicle depart="72.22" id="65">
        <route edges="6Wi 7Wi 8Wi 8Eo" />
    </vehicle>
    <vehicle depart="73.33" id="66">
        <route edges="8Si 5Si 2Si 1Ei 0Ei 0Wo" />
    </vehicle>
    <vehicle depart="74.44" id="67">
        <route edges="6Si 7Wi 4Si 1Si 2Wi" />
    </vehicle>
    <vehicle depart="75.56" id="68">
        <route edges="0Ni 1Wi 4Ni 7Ni 6Ei" />
    </vehicle>
    <vehicle depart="76.67" id="69">
        <route edges="8Si 5Si 4Ei 1Si" />
    </vehicle>
    <vehicle depart="77.78" id="70">
        <route edges="8Ei 5Si 2Si 1Ei 0Ei" />
    </vehicle>
    <vehicle depart="78.89" id="71">
        <route edges="7Si 4Si 1Si 0Ei 0Wo" />
    </vehicle>
    <vehicle depart="80.00" id="72">
        <route edges="3Wi 4Wi 5Wi 8Ni" />
    </vehicle>
    <vehicle depart="81.11" id="73">
        <route edges="6Si 3Si 0Si" />
    </vehicle>
    <vehicle depart="82.22" id="74">
        <route edges="2Ni 5Ni 8Ni 8So" />
    </vehicle>
    <vehicle depart="83.33" id="75">
        <route edges="1Ni 4Ni 3Ei 3Wo" />
    </vehicle>
    <vehicle depart="84.44" id="76">
        <route edges="2Ni 5Ni 8Ni 7Ei" />
    </vehicle>
    <vehicle depart="85.56" id="77">
        <route edges="7Si 4Si 3Ei 0Si" />
    </vehicle>
    <vehicle depart="86.67" id="78">
        <route edges="0Ni 1Wi 2Wi 5Ni 8Ni" />
    </vehicle>
    <vehicle depart="87.78" id="79">
        <route edges="2Ei 5Ni 4Ei 3Ei 3Wo" />
    </vehicle>
    <vehicle depart="88.89" id="80">
        <route edges="2Ni 5Ni 8Ni 7Ei 6Ei" />
    </vehicle>
    <vehicle depart="90.00" id="81">
        <route edges="0Ni 3Ni 6Ni" />
    </vehicle>
    <vehicle depart="91.11" id="82">
        <route edges="0Wi 1Wi 2Wi 5Ni" />
    </vehicle>
    <vehicle depart="92.22" id="83">
        <route edges="6Si 3Si 0Si" />
    </vehicle>
    <vehicle depart="93.33" id="84">
        <route edges="7Si 8Wi 5Si 2Si" />
    </vehicle>
    <vehicle depart="94.44" id="85">
        <route edges="8Ei 7Ei 6Ei" />
    </vehicle>
    <vehicle depart="95.56" id="86">
        <route edges="0Wi 1Wi 4Ni 7Ni 8Wi" />
    </vehicle>
    <vehicle depart="96.67" id="87">
        <route edges="6Si 7Wi 8Wi 5Si 2Si 2No" />
    </vehicle>
    <vehicle depart="97.78" id="88">
        <route edges="8Ei 5Si 4Ei 3Ei 0Si" />
    </vehicle>
    <vehicle depart="98.89" id="89">
        <route edges="2Ni 5Ni 8Ni 7Ei 6Ei" />
    </vehicle>
    <vehicle depart="100.00" id="90">
        <route edges="7Si 8Wi 5Si 2Si 1Ei" />
    </vehicle>
    <vehicle depart="101.11" id="91">
        <route edges="0Wi 1Wi 4Ni 7Ni 7So" />
    </vehicle>
    <vehicle depart="102.22" id="92">
        <route edges="1Ni 4Ni 3Ei 6Ni 7Wi" />
    </vehicle>
    <vehicle depart="103.33" id="93">
        <route edges="7Si 4Si 3Ei 0Si" />
    </vehicle>
    <vehicle depart="104.44" id="94">
        <route edges="0Ni 1Wi 2Wi 5Ni 8Ni 7Ei" />
    </vehicle>
    <vehicle depart="105.56" id="95">
        <route edges="0Wi 1Wi 4Ni 5Wi 2Si" />
    </vehicle>
    <vehicle depart="106.67" id="96">
        <route edges="8Si 5Si 4Ei 3Ei 3Wo" />
    </vehicle>
    <vehicle depart="107.78" id="97">
        <route edges="0Wi 1Wi 4Ni 5Wi" />
    </vehicle>
    <vehicle depart="108.89" id="98">
        <route edges="0Ni 1Wi 2Wi 5Ni 5Eo" />
    </vehicle>
    <vehicle depart="110.00" id="99">
        <route edges="1Ni 2Wi 5Ni 5Eo" />
    </vehicle>
    <vehicle depart="111.11" id="100">
        <route edges="7Si 4Si 3Ei 3Wo" />
    </vehicle>
    <vehicle depart="112.22" id="101">
        <route edges="5Ei 2Si 1Ei 0Ei 3Ni" />
    </vehicle>
    <vehicle depart="113.33" id="102">
        <route edges="0Ni 1Wi 4Ni 7Ni 6Ei" />
    </vehicle>
    <vehicle depart="114.44" id="103">
        <route edges="0Wi 1Wi 4Ni 5Wi" />
    </vehicle>
    <vehicle depart="115.56" id="104">
        <route edges="6Si 3Si 0Si 0Wo" />
    </vehicle>
    <vehicle depart="116.67" id="105">
        <route edges="7Si 8Wi 5Si 2Si 1Ei" />
    </vehicle>
    <vehicle depart="117.78" id="106">
        <route edges="6Wi 7Wi 4Si 1Si 2Wi 5Ni" />
    </vehicle>
    <vehicle depart="118.89" id="107">
        <route edges="2Ni 5Ni 4Ei 3Ei 3Wo" />
    </vehicle>
    <vehicle depart="120.00" id="108">
        <route edges="2Ei 5Ni 8Ni 7Ei 6Ei 3Si" />
    </vehicle>
    <vehicle depart="121.11" id="109">
        <route edges="3Wi 4Wi 5Wi" />
    </vehicle>
    <vehicle depart="122.22" id="110">
        <route edges="6Si 7Wi 8Wi 5Si 2Si" />
    </vehicle>
    <vehicle depart="123.33" id="111">
        <route edges="0Wi 1Wi 4Ni 5Wi" />
    </vehicle>
    <vehicle depart="124.44" id="112">
        <route edges="0Ni 1Wi 2Wi 5Ni 5Eo" />
    </vehicle>
    <vehicle depart="125.56" id="113">
        <route edges="5Ei 4Ei 3Ei" />
    </vehicle>
    <vehicle depart="126.67" id="114">
        <route edges="2Ni 5Ni 8Ni 8Eo" />
    </vehicle>
    <vehicle depart="127.78" id="115">
        <route edges="1Ni 4Ni 7Ni 6Ei 6So" />
    </vehicle>
    <vehicle depart="128.89" id="116">
        <route edges="8Ei 7Ei 6Ei" />
    </vehicle>
    <vehicle depart="130.00" id="117">
        <route edges="6Wi 7Wi 4Si 1Si 1No" />
    </vehicle>
    <vehicle depart="131.11" id="118">
        <route edges="8Si 5Si 2Si 1Ei 1No" />
    </vehicle>
    <vehicle depart="132.22" id="119">
        <route edges="7Si 4Si 1Si" />
    </vehicle>
    <vehicle depart="133.33" id="120">
        <route edges="1Ni 2Wi 5Ni 5Eo" />
    </vehicle>
    <vehicle depart="134.44" id="121">
        <route edges="1Ni 2Wi 5Ni 8Ni 8So" />
    </vehicle>
    <vehicle depart="135.56" id="122">
        <route edges="1Ni 4Ni 7Ni 8Wi" />
    </vehicle>
    <vehicle depart="136.67" id="123">
        <route edges="5Ei 2Si 1Ei 0Ei" />
    </vehicle>
    <vehicle depart="137.78" id="124">
        <route edges="6Wi 7Wi 8Wi 5Si" />
    </vehicle>
    <vehicle depart="138.89" id="125">
        <route edges="1Ni 4Ni 3Ei 3Wo" />
    </vehicle>
    <vehicle depart="140.00" id="126">
        <route edges="8Ei 5Si 4Ei 3Ei 6Ni" />
    </vehicle>
    <vehicle depart="141.11" id="127">
        <route edges="8Si 5Si 4Ei 3Ei 3Wo" />
    </vehicle>
    <vehicle depart="142.22" id="128">
        <route edges="5Ei 8Ni 7Ei 6Ei" />
    </vehicle>
    <vehicle depart="143.33" id="129">
        <route edges="5Ei 8Ni 7Ei 6Ei 6So" />
    </vehicle>
    <vehicle depart="144.44" id="130">
        <route edges="6Si 3Si 0Si 0No" />
    </vehicle>
    <vehicle depart="145.56" id="131">
        <route edges="3Wi 4Wi 7Ni 7So" />
    </vehicle>
    <vehicle depart="146.67" id="132">
        <route edges="0Wi 1Wi 2Wi 5Ni 8Ni 8So" />
    </vehicle>
    <vehicle depart="147.78" id="133">
        <route edges="0Ni 1Wi 2Wi 5Ni 5Eo" />
    </vehicle>
    <vehicle depart="148.89" id="134">
        <route edges="8Si 5Si 2Si 1Ei 0Ei" />
    </vehicle>
    <vehicle depart="150.00" id="135">
        <route edges="2Ei 5Ni 8Ni 7Ei 6Ei 3Si" />
    </vehicle>
    <vehicle depart="151.11" id="136">
        <route edges="2Ni 5Ni 8Ni" />
    </vehicle>
    <vehicle depart="152.22" id="137">
        <route edges="0Wi 1Wi 2Wi 2No" />
    </vehicle>
    <vehicle depart="153.33" id="138">
        <route edges="1Ni 4Ni 3Ei 6Ni 7Wi" />
    </vehicle>
    <vehicle depart="154.44" id="139">
        <route edges="3Wi 4Wi 5Wi" />
    </vehicle>
    <vehicle depart="155.56" id="140">
        <route edges="2Ni 5Ni 4Ei 7Ni" />
    </vehicle>
    <vehicle depart="156.67" id="141">
        <route edges="5Ei 2Si 1Ei 0Ei 0No" />
    </vehicle>
    <vehicle depart="157.78" id="142">
        <route edges="6Wi 7Wi 4Si 1Si 1No" />
    </vehicle>
    <vehicle depart="158.89" id="143">
        <route edges="2Ei 5Ni 8Ni 7Ei 6Ei 6Wo" />
    </vehicle>
    <vehicle depart="160.00" id="144">
        <route edges="3Wi 4Wi 5Wi 8Ni 8Eo" />
    </vehicle>
    <vehicle depart="161.11" id="145">
        <route edges="3Wi 4Wi 5Wi 8Ni 8Eo" />
    </vehicle>
    <vehicle depart="162.22" id="146">
        <route edges="0Ni 3Ni 6Ni" />
    </vehicle>
    <vehicle depart="163.33" id="147">
        <route edges="7Si 4Si 3Ei 3Wo" />
    </vehicle>
    <vehicle depart="164.44" id="148">
        <route edges="7Si 4Si 1Si" />
    </vehicle>
    <vehicle depart="165.56" id="149">
        <route edges="6Si 7Wi 8Wi 5Si 2Si 1Ei" />
    </vehicle>
    <vehicle depart="166.67" id="150">
        <route edges="1Ni 4Ni 3Ei 6Ni" />
    </vehicle>
    <vehicle depart="167.78" id="151">
        <route edges="0Wi 1Wi 2Wi 5Ni 8Ni 8So" />
    </vehicle>
    <vehicle depart="168.89" id="152">
        <route edges="0Wi 1Wi 2Wi 2No" />
    </vehicle>
    <vehicle depart="170.00" id="153">
        <route edges="1Ni 4Ni 7Ni" />
    </vehicle>
    <vehicle depart="171.11" id="154">
        <route edges="0Ni 3Ni 6Ni 7Wi" />
    </vehicle>
    <vehicle depart="172.22" id="155">
        <route edges="8Si 7Ei 6Ei 6Wo" />
    </vehicle>
    <vehicle depart="173.33" id="156">
        <route edges="6Si 7Wi 4Si 1Si 0Ei" />
    </vehicle>
    <vehicle depart="174.44" id="157">
        <route edges="0Wi 1Wi 2Wi" />
    </vehicle>
    <vehicle depart="175.56" id="158">
        <route edges="6Si 7Wi 4Si 1Si 1No" />
    </vehicle>
    <vehicle depart="176.67" id="159">
        <route edges="0Ni 1Wi 2Wi 2Eo" />
    </vehicle>
    <vehicle depart="177.78" id="160">
        <route edges="2Ni 1Ei 0Ei 0Wo" />
    </vehicle>
    <vehicle depart="178.89" id="161">
        <route edges="8Ei 5Si 4Ei 3Ei 3Wo" />
    </vehicle>
    <vehicle depart="180.00" id="162">
        <route edges="0Wi 1Wi 2Wi 5Ni 5Eo" />
    </vehicle>
    <vehicle depart="181.11" id="163">
        <route edges="1Ni 4Ni 7Ni 6Ei 6Wo" />
    </vehicle>
    <vehicle depart="182.22" id="164">
        <route edges="5Ei 8Ni 7Ei 6Ei 6So" />
    </vehicle>
    <vehicle depart="183.33" id="165">
        <route edges="2Ei 5Ni 4Ei 3Ei 3Wo" />
    </vehicle>
    <vehicle depart="184.44" id="166">
        <route edges="6Si 7Wi 8Wi 8Eo" />
    </vehicle>
    <vehicle depart="185.56" id="167">
        <route edges="0Wi 1Wi 2Wi 2Eo" />
    </vehicle>
    <vehicle depart="186.67" id="168">
        <route edges="1Ni 2Wi 5Ni 8Ni 8Eo" />
    </vehicle>
    <vehicle depart="187.78" id="169">
        <route edges="0Wi 1Wi 4Ni 5Wi 2Si" />
    </vehicle>
    <vehicle depart="188.89" id="170">
        <route edges="6Wi 7Wi 8Wi 5Si" />
    </vehicle>
    <vehicle depart="190.00" id="171">
        <route edges="6Wi 7Wi 8Wi 5Si 2Si 2Eo" />
    </vehicle>
    <vehicle depart="191.11" id="172">
        <route edges="6Si 7Wi 8Wi 5Si 2Si 2Eo" />
    </vehicle>
    <vehicle depart="192.22" id="173">
        <route edges="8Si 5Si 4Ei 3Ei 0Si" />
    </vehicle>
    <vehicle depart="193.33" id="174">
        <route edges="2Ei 5Ni 8Ni 8So" />
    </vehicle>
    <vehicle depart="194.44" id="175">
        <route edges="0Ni 3Ni 6Ni" />
    </vehicle>
    <vehicle depart="195.56" id="176">
        <route edges="8Si 5Si 4Ei 3Ei 0Si" />
    </vehicle>
    <vehicle depart="196.67" id="177">
        <route edges="3Wi 4Wi 1Si 2Wi" />
    </vehicle>
    <vehicle depart="197.78" id="178">
        <route edges="3Wi 4Wi 5Wi 2Si" />
    </vehicle>
    <vehicle depart="198.89" id="179">
        <route edges="2Ni 5Ni 8Ni 7Ei 7So" />
    </vehicle>
    <vehicle depart="200.00" id="180">
        <route edges="8Si 5Si 2Si 2No" />
    </vehicle>
    <vehicle depart="201.11" id="181">
        <route edges="5Ei 2Si 1Ei 0Ei 0Wo" />
    </vehicle>
    <vehicle depart="202.22" id="182">
        <route edges="0Ni 3Ni 6Ni" />
    </vehicle>
    <vehicle depart="203.33" id="183">
        <route edges="1Ni 4Ni 7Ni 6Ei" />
    </vehicle>
    <vehicle depart="204.44" id="184">
        <route edges="5Ei 8Ni 7Ei 6Ei 6So" />
    </vehicle>
    <vehicle depart="205.56" id="185">
        <route edges="2Ni 5Ni 4Ei 3Ei 6Ni" />
    </vehicle>
    <vehicle depart="206.67" id="186">
        <route edges="0Wi 1Wi 2Wi 5Ni" />
    </vehicle>
    <vehicle depart="207.78" id="187">
        <route edges="2Ei 5Ni 4Ei 3Ei 6Ni" />
    </vehicle>
    <vehicle depart="208.89" id="188">
        <route edges="8Si 5Si 2Si 1Ei 0Ei 0No" />
    </vehicle>
    <vehicle depart="210.00" id="189">
        <route edges="6Wi 7Wi 4Si 5Wi" />
    </vehicle>
    <vehicle depart="211.11" id="190">
        <route edges="2Ni 5Ni 4Ei 3Ei 3Wo" />
    </vehicle>
    <vehicle depart="212.22" id="191">
        <route edges="1Ni 4Ni 7Ni 6Ei 6Wo" />
    </vehicle>
    <vehicle depart="213.33" id="192">
        <route edges="8Si 5Si 2Si" />
    </vehicle>
    <vehicle depart="214.44" id="193">
        <route edges="8Si 5Si 2Si 2No" />
    </vehicle>
    <vehicle depart="215.56" id="194">
        <route edges="3Wi 4Wi 5Wi 8Ni 8Eo" />
    </vehicle>
    <vehicle depart="216.67" id="195">
        <route edges="0Ni 1Wi 2Wi 5Ni 8Ni 8So" />
    </vehicle>
    <vehicle depart="217.78" id="196">
        <route edges="3Wi 4Wi 7Ni 8Wi 5Si" />
    </vehicle>
    <vehicle depart="218.89" id="197">
        <route edges="2Ei 5Ni 8Ni 7Ei 6Ei 3Si" />
    </vehicle>
    <vehicle depart="220.00" id="198">
        <route edges="6Si 3Si 0Si 1Wi" />
    </vehicle>
    <vehicle depart="221.11" id="199">
        <route edges="0Ni 1Wi 4Ni 7Ni 6Ei" />
    </vehicle>
    <vehicle depart="222.22" id="200">
        <route edges="2Ei 5Ni 8Ni 7Ei 7So" />
    </vehicle>
    <vehicle depart="223.33" id="201">
        <route edges="0Wi 1Wi 2Wi 5Ni 8Ni 8So" />
    </vehicle>
    <vehicle depart="224.44" id="202">
        <route edges="0Ni 3Ni 6Ni 6Wo" />
    </vehicle>
    <vehicle depart="225.56" id="203">
        <route edges="2Ni 5Ni 8Ni 7Ei 6Ei 6Wo" />
    </vehicle>
    <vehicle depart="226.67" id="204">
        <route edges="2Ni 5Ni 8Ni 7Ei 6Ei 6So" />
    </vehicle>
    <vehicle depart="227.78" id="205">
        <route edges="6Wi 7Wi 4Si 5Wi" />
    </vehicle>
    <vehicle depart="228.89" id="206">
        <route edges="2Ei 5Ni 8Ni 7Ei 6Ei 3Si" />
    </vehicle>
    <vehicle depart="230.00" id="207">
        <route edges="3Wi 4Wi 7Ni 8Wi 5Si" />
    </vehicle>
    <vehicle depart="231.11" id="208">
        <route edges="7Si 8Wi 5Si 2Si 2No" />
    </vehicle>
    <vehicle depart="232.22" id="209">
        <route edges="6Si 7Wi 4Si 1Si 1No" />
    </vehicle>
    <vehicle depart="233.33" id="210">
        <route edges="0Wi 1Wi 4Ni 5Wi" />
    </vehicle>
    <vehicle depart="234.44" id="211">
        <route edges="6Wi 7Wi 4Si 5Wi" />
    </vehicle>
    <vehicle depart="235.56" id="212">
        <route edges="5Ei 2Si 1Ei 0Ei 3Ni" />
    </vehicle>
    <vehicle depart="236.67" id="213">
        <route edges="6Wi 7Wi 4Si 5Wi 8Ni" />
    </vehicle>
    <vehicle depart="237.78" id="214">
        <route edges="0Ni 1Wi 2Wi 5Ni 8Ni 8So" />
    </vehicle>
    <vehicle depart="238.89" id="215">
        <route edges="6Wi 7Wi 8Wi 5Si 2Si 2Eo" />
    </vehicle>
    <vehicle depart="240.00" id="216">
        <route edges="8Ei 5Si 4Ei 3Ei" />
    </vehicle>
    <vehicle depart="241.11" id="217">
        <route edges="3Wi 4Wi 1Si 2Wi" />
    </vehicle>
    <vehicle depart="242.22" id="218">
        <route edges="2Ni 5Ni 8Ni 7Ei 6Ei 6So" />
    </vehicle>
    <vehicle depart="243.33" id="219">
        <route edges="5Ei 2Si 1Ei 0Ei 0No" />
    </vehicle>
    <vehicle depart="244.44" id="220">
        <route edges="0Ni 1Wi 2Wi 5Ni 8Ni" />
    </vehicle>
    <vehicle depart="245.56" id="221">
        <route edges="0Wi 1Wi 2Wi 5Ni 8Ni 8So" />
    </vehicle>
    <vehicle depart="246.67" id="222">
        <route edges="6Wi 7Wi 8Wi 5Si 5Eo" />
    </vehicle>
    <vehicle depart="247.78" id="223">
        <route edges="6Wi 7Wi 8Wi 5Si 2Si 2Eo" />
    </vehicle>
    <vehicle depart="248.89" id="224">
        <route edges="0Wi 1Wi 2Wi 2Eo" />
    </vehicle>
    <vehicle depart="250.00" id="225">
        <route edges="0Wi 1Wi 2Wi 2Eo" />
    </vehicle>
    <vehicle depart="251.11" id="226">
        <route edges="2Ni 5Ni 4Ei 3Ei 6Ni 7Wi" />
    </vehicle>
    <vehicle depart="252.22" id="227">
        <route edges="1Ni 2Wi 5Ni 8Ni" />
    </vehicle>
    <vehicle depart="253.33" id="228">
        <route edges="6Wi 7Wi 8Wi 5Si 2Si" />
    </vehicle>
    <vehicle depart="254.44" id="229">
        <route edges="1Ni 4Ni 7Ni 7So" />
    </vehicle>
    <vehicle depart="255.56" id="230">
        <route edges="1Ni 4Ni 3Ei 3Wo" />
    </vehicle>
    <vehicle depart="256.67" id="231">
        <route edges="0Ni 1Wi 2Wi 5Ni 8Ni 7Ei" />
    </vehicle>
    <vehicle depart="257.78" id="232">
        <route edges="8Ei 7Ei 6Ei 3Si" />
    </vehicle>
    <vehicle depart="258.89" id="233">
        <route edges="5Ei 4Ei 3Ei 6Ni" />
    </vehicle>
    <vehicle depart="260.00" id="234">
        <route edges="0Wi 1Wi 2Wi 5Ni 8Ni 8So" />
    </vehicle>
    <vehicle depart="261.11" id="235">
        <route edges="6Si 7Wi 8Wi 5Si 5Eo" />
    </vehicle>
    <vehicle depart="262.22" id="236">
        <route edges="0Ni 1Wi 2Wi 5Ni 8Ni" />
    </vehicle>
    <vehicle depart="263.33" id="237">
        <route edges="0Wi 1Wi 4Ni 7Ni 8Wi" />
    </vehicle>
    <vehicle depart="264.44" id="238">
        <route edges="6Si 7Wi 4Si 1Si 2Wi" />
    </vehicle>
    <vehicle depart="265.56" id="239">
        <route edges="6Wi 7Wi 8Wi 8Eo" />
    </vehicle>
    <vehicle depart="266.67" id="240">
        <route edges="2Ei 1Ei 0Ei 0Wo" />
    </vehicle>
    <vehicle depart="267.78" id="241">
        <route edges="2Ni 5Ni 4Ei 3Ei 6Ni" />
    </vehicle>
    <vehicle depart="268.89" id="242">
        <route edges="8Ei 5Si 4Ei 3Ei 6Ni" />
    </vehicle>
    <vehicle depart="270.00" id="243">
        <route edges="0Wi 1Wi 4Ni 7Ni 8Wi 5Si" />
    </vehicle>
    <vehicle depart="271.11" id="244">
        <route edges="6Wi 7Wi 8Wi 5Si 2Si" />
    </vehicle>
    <vehicle depart="272.22" id="245">
        <route edges="1Ni 4Ni 7Ni 8Wi" />
    </vehicle>
    <vehicle depart="273.33" id="246">
        <route edges="5Ei 2Si 1Ei 0Ei 0No" />
    </vehicle>
    <vehicle depart="274.44" id="247">
        <route edges="5Ei 2Si 1Ei 0Ei 3Ni" />
    </vehicle>
    <vehicle depart="275.56" id="248">
        <route edges="2Ei 5Ni 8Ni 7Ei 7So" />
    </vehicle>
    <vehicle depart="276.67" id="249">
        <route edges="2Ei 5Ni 8Ni 7Ei 6Ei" />
    </vehicle>
    <vehicle depart="277.78" id="250">
        <route edges="1Ni 4Ni 7Ni 6Ei" />
    </vehicle>
    <vehicle depart="278.89" id="251">
        <route edges="5Ei 8Ni 7Ei 6Ei" />
    </vehicle>
    <vehicle depart="280.00" id="252">
        <route edges="1Ni 2Wi 5Ni 8Ni 8So" />
    </vehicle>
    <vehicle depart="281.11" id="253">
        <route edges="0Ni 3Ni 6Ni" />
    </vehicle>
    <vehicle depart="282.22" id="254">
        <route edges="8Si 5Si 4Ei 3Ei 0Si" />
    </vehicle>
    <vehicle depart="283.33" id="255">
        <route edges="8Ei 5Si 2Si 1Ei 0Ei 3Ni" />
    </vehicle>
    <vehicle depart="284.44" id="256">
        <route edges="8Ei 5Si 2Si 1Ei 1No" />
    </vehicle>
    <vehicle depart="285.56" id="257">
        <route edges="7Si 4Si 1Si 1No" />
    </vehicle>
    <vehicle depart="286.67" id="258">
        <route edges="0Wi 1Wi 2Wi 5Ni 8Ni 8So" />
    </vehicle>
    <vehicle depart="287.78" id="259">
        <route edges="1Ni 4Ni 3Ei 3Wo" />
    </vehicle>
    <vehicle depart="288.89" id="260">
        <route edges="6Wi 7Wi 8Wi" />
    </vehicle>
    <vehicle depart="290.00" id="261">
        <route edges="6Wi 7Wi 8Wi 5Si 5Eo" />
    </vehicle>
    <vehicle depart="291.11" id="262">
        <route edges="0Wi 1Wi 2Wi 5Ni" />
    </vehicle>
    <vehicle depart="292.22" id="263">
        <route edges="3Wi 4Wi 5Wi 2Si" />
    </vehicle>
    <vehicle depart="293.33" id="264">
        <route edges="8Ei 5Si 2Si 1Ei 0Ei 3Ni" />
    </vehicle>
    <vehicle depart="294.44" id="265">
        <route edges="3Wi 4Wi 5Wi 8Ni 8So" />
    </vehicle>
    <vehicle depart="295.56" id="266">
        <route edges="2Ni 5Ni 8Ni 7Ei 6Ei 6Wo" />
    </vehicle>
    <vehicle depart="296.67" id="267">
        <route edges="2Ni 5Ni 8Ni 7Ei 6Ei 6Wo" />
    </vehicle>
    <vehicle depart="297.78" id="268">
        <route edges="0Wi 1Wi 2Wi" />
    </vehicle>
    <vehicle depart="298.89" id="269">
        <route edges="0Ni 1Wi 4Ni 7Ni 6Ei" />
    </vehicle>
    <vehicle depart="300.00" id="270">
        <route edges="2Ni 5Ni 4Ei 7Ni" />
    </vehicle>
    <vehicle depart="301.11" id="271">
        <route edges="2Ni 5Ni 8Ni 8So" />
    </vehicle>
    <vehicle depart="302.22" id="272">
        <route edges="2Ni 5Ni 8Ni 8Eo" />
    </vehicle>
    <vehicle depart="303.33" id="273">
        <route edges="0Ni 1Wi 4Ni 7Ni 7So" />
    </vehicle>
    <vehicle depart="304.44" id="274">
        <route edges="8Si 5Si 4Ei 3Ei 0Si 1Wi" />
    </vehicle>
    <vehicle depart="305.56" id="275">
        <route edges="0Ni 3Ni 6Ni 6So" />
    </vehicle>
    <vehicle depart="306.67" id="276">
        <route edges="5Ei 2Si 1Ei 0Ei 0No" />
    </vehicle>
    <vehicle depart="307.78" id="277">
        <route edges="2Ei 5Ni 4Ei 3Ei" />
    </vehicle>
    <vehicle depart="308.89" id="278">
        <route edges="1Ni 2Wi 5Ni 5Eo" />
    </vehicle>
    <vehicle depart="310.00" id="279">
        <route edges="8Si 5Si 2Si 2Eo" />
    </vehicle>
    <vehicle depart="311.11" id="280">
        <route edges="6Si 3Si 0Si 0No" />
    </vehicle>
    <vehicle depart="312.22" id="281">
        <route edges="8Ei 5Si 2Si 1Ei 0Ei 3Ni" />
    </vehicle>
    <vehicle depart="313.33" id="282">
        <route edges="5Ei 2Si 1Ei 0Ei 3Ni" />
    </vehicle>
    <vehicle depart="314.44" id="283">
        <route edges="8Si 5Si 2Si 2No" />
    </vehicle>
    <vehicle depart="315.56" id="284">
        <route edges="5Ei 4Ei 3Ei" />
    </vehicle>
    <vehicle depart="316.67" id="285">
        <route edges="6Wi 7Wi 4Si 5Wi" />
    </vehicle>
    <vehicle depart="317.78" id="286">
        <route edges="7Si 8Wi 5Si 5Eo" />
    </vehicle>
    <vehicle depart="318.89" id="287">
        <route edges="3Wi 4Wi 7Ni 7So" />
    </vehicle>
    <vehicle depart="320.00" id="288">
        <route edges="2Ni 5Ni 4Ei 3Ei 3Wo" />
    </vehicle>
    <vehicle depart="321.11" id="289">
        <route edges="8Si 5Si 4Ei 1Si" />
    </vehicle>
    <vehicle depart="322.22" id="290">
        <route edges="0Ni 1Wi 2Wi 5Ni 8Ni 8So" />
    </vehicle>
    <vehicle depart="323.33" id="291">
        <route edges="6Wi 7Wi 8Wi 8Eo" />
    </vehicle>
    <vehicle depart="324.44" id="292">
        <route edges="3Wi 4Wi 5Wi 2Si 2Eo" />
    </vehicle>
    <vehicle depart="325.56" id="293">
        <route edges="6Si 3Si 0Si" />
    </vehicle>
    <vehicle depart="326.67" id="294">
        <route edges="0Ni 3Ni 6Ni 6So" />
    </vehicle>
    <vehicle depart="327.78" id="295">
        <route edges="8Ei 5Si 4Ei 3Ei 6Ni" />
    </vehicle>
    <vehicle depart="328.89" id="296">
        <route edges="0Ni 1Wi 2Wi 2Eo" />
    </vehicle>
    <vehicle depart="330.00" id="297">
        <route edges="6Si 7Wi 4Si 1Si 0Ei" />
    </vehicle>
    <vehicle depart="331.11" id="298">
        <route edges="2Ni 5Ni 8Ni 7Ei 7So" />
    </vehicle>
    <vehicle depart="332.22" id="299">
        <route edges="8Ei 5Si 4Ei 3Ei 0Si" />
    </vehicle>
    <vehicle depart="333.33" id="300">
        <route edges="2Ei 1Ei 0Ei 0No" />
    </vehicle>
    <vehicle depart="334.44" id="301">
        <route edges="3Wi 4Wi 1Si 2Wi" />
    </vehicle>
    <vehicle depart="335.56" id="302">
        <route edges="6Wi 7Wi 8Wi 5Si 2Si 2Eo" />
    </vehicle>
    <vehicle depart="336.67" id="303">
        <route edges="5Ei 2Si 1Ei 0Ei 3Ni" />
    </vehicle>
    <vehicle depart="337.78" id="304">
        <route edges="3Wi 4Wi 5Wi 5Eo" />
    </vehicle>
    <vehicle depart="338.89" id="305">